* Nangila SPICE Auto-Synthesized Netlist
.SUBCKT INV_X1 A Z
M1 Z A 0 0 NMOS W=0.2u L=0.05u
M2 Z A 1 1 PMOS W=0.4u L=0.05u
.ENDS

.SUBCKT NAND2_X1 A1 A2 Z
M1 Z A1 1 1 PMOS W=0.4u L=0.05u
M2 Z A2 1 1 PMOS W=0.4u L=0.05u
M3 Z A1 int 0 NMOS W=0.2u L=0.05u
M4 int A2 0 0 NMOS W=0.2u L=0.05u
.ENDS

.SUBCKT AND2_X1 A1 A2 Z
X1 A1 A2 Z_bar NAND2_X1
X2 Z_bar Z INV_X1
.ENDS

.SUBCKT NOR2_X1 A1 A2 Z
M1 int1 A1 1 1 PMOS W=0.4u L=0.05u
M2 Z A2 int1 1 PMOS W=0.4u L=0.05u
M3 Z A1 0 0 NMOS W=0.2u L=0.05u
M4 Z A2 0 0 NMOS W=0.2u L=0.05u
.ENDS

.SUBCKT OR2_X1 A1 A2 Z
X1 A1 A2 Z_bar NOR2_X1
X2 Z_bar Z INV_X1
.ENDS

.SUBCKT XOR2_X1 A1 A2 Z
X1 A1 A2 int1 AND2_X1
X2 A1 A2 int2 NOR2_X1
X3 int1 int2 int3 NOR2_X1
X4 int3 Z INV_X1
.ENDS

.SUBCKT XNOR2_X1 A B Z
X1 A B Z_int XOR2_X1
X2 Z_int Z INV_X1
.ENDS

.SUBCKT BUF_X1 A Z
X1 A Z_bar INV_X1
X2 Z_bar Z INV_X1
.ENDS

.SUBCKT OAI21_X1 A B C Z
X1 A B C Z_bar AOI21_X1
X2 Z_bar Z INV_X1
.ENDS

.SUBCKT AOI21_X1 A B C Z
M1 Z A int1 1 PMOS W=0.4u L=0.05u
M2 int1 B 1 1 PMOS W=0.4u L=0.05u
M3 Z C 1 1 PMOS W=0.4u L=0.05u
M4 Z A 0 0 NMOS W=0.2u L=0.05u
M5 Z B 0 0 NMOS W=0.2u L=0.05u
M6 Z C 0 0 NMOS W=0.2u L=0.05u
.ENDS

.SUBCKT NAND3_X1 A1 A2 A3 Z
X1 A1 A2 int1 AND2_X1
X2 int1 A3 Z NAND2_X1
.ENDS

.SUBCKT AND3_X1 A1 A2 A3 Z
X1 A1 A2 A3 Z_bar NAND3_X1
X2 Z_bar Z INV_X1
.ENDS

.SUBCKT NOR3_X1 A1 A2 A3 Z
X1 A1 A2 int1 OR2_X1
X2 int1 A3 Z NOR2_X1
.ENDS

.SUBCKT OR3_X1 A1 A2 A3 Z
X1 A1 A2 A3 Z_bar NOR3_X1
X2 Z_bar Z INV_X1
.ENDS

.SUBCKT NAND4_X1 A1 A2 A3 A4 Z
X1 A1 A2 A3 int1 AND3_X1
X2 int1 A4 Z NAND2_X1
.ENDS

.SUBCKT AND4_X1 A1 A2 A3 A4 Z
X1 A1 A2 A3 A4 Z_bar NAND4_X1
X2 Z_bar Z INV_X1
.ENDS

.SUBCKT NOR4_X1 A1 A2 A3 A4 Z
X1 A1 A2 A3 int1 OR3_X1
X2 int1 A4 Z NOR2_X1
.ENDS

.SUBCKT OR4_X1 A1 A2 A3 A4 Z
X1 A1 A2 A3 A4 Z_bar NOR4_X1
X2 Z_bar Z INV_X1
.ENDS

.SUBCKT AOI22_X1 A B C D Z
X1 A B int1 AND2_X1
X2 C D int2 AND2_X1
X3 int1 int2 Z NOR2_X1
.ENDS

.SUBCKT OAI22_X1 A B C D Z
X1 A B int1 OR2_X1
X2 C D int2 OR2_X1
X3 int1 int2 Z NAND2_X1
.ENDS

.SUBCKT AOI211_X1 A B C D Z
X1 A B int1 AND2_X1
X2 int1 C D Z NOR3_X1
.ENDS

.SUBCKT OAI211_X1 A B C D Z
X1 A B int1 OR2_X1
X2 int1 C D Z NAND3_X1
.ENDS

.SUBCKT OAI33_X1 A B C D E F Z
X1 A B C int1 OR3_X1
X2 D E F int2 OR3_X1
X3 int1 int2 Z NAND2_X1
.ENDS

.SUBCKT AOI33_X1 A B C D E F Z
X1 A B C int1 AND3_X1
X2 D E F int2 AND3_X1
X3 int1 int2 Z NOR2_X1
.ENDS

.SUBCKT MUX2_X1 A B S Z
X1 S S_bar INV_X1
X2 A S_bar int1 AND2_X1
X3 B S int2 AND2_X1
X4 int1 int2 Z OR2_X1
.ENDS

.SUBCKT DFF_X1 D C Q QN
X1 D Q_int INV_X1
X2 Q_int Q INV_X1
X3 Q_int QN INV_X1
.ENDS

.SUBCKT DFFR_X1 D C RN Q QN
X1 D Q_int INV_X1
X2 Q_int Q INV_X1
X3 Q_int QN INV_X1
.ENDS

.SUBCKT DFFS_X1 C D Q QN SN
X1 D Q_int INV_X1
X2 Q_int Q INV_X1
X3 Q_int QN INV_X1
.ENDS

.SUBCKT DFFRS_X1 C D Q QN RN SN
X1 D Q_int INV_X1
X2 Q_int Q INV_X1
X3 Q_int QN INV_X1
.ENDS

* Provide VDD power source explicitly
Vvdd 1 0 1.8

* Auto-extracted Inputs:
V_N1 N1 0 1.8
V_N18 N18 0 0.0
V_N35 N35 0 1.8
V_N52 N52 0 0.0
V_N69 N69 0 1.8
V_N86 N86 0 0.0
V_N103 N103 0 1.8
V_N120 N120 0 0.0
V_N137 N137 0 1.8
V_N154 N154 0 0.0
V_N171 N171 0 1.8
V_N188 N188 0 0.0
V_N205 N205 0 1.8
V_N222 N222 0 0.0
V_N239 N239 0 1.8
V_N256 N256 0 0.0
V_N273 N273 0 1.8
V_N290 N290 0 0.0
V_N307 N307 0 1.8
V_N324 N324 0 0.0
V_N341 N341 0 1.8
V_N358 N358 0 0.0
V_N375 N375 0 1.8
V_N392 N392 0 0.0
V_N409 N409 0 1.8
V_N426 N426 0 0.0
V_N443 N443 0 1.8
V_N460 N460 0 0.0
V_N477 N477 0 1.8
V_N494 N494 0 0.0
V_N511 N511 0 1.8
V_N528 N528 0 0.0

* Yosys Generated Netlist:
* SPICE netlist generated by Yosys 0.62 (git sha1 7326bb7d6641500ecb285c291a54a662cb1e76cf, clang++ 17.0.0 -fPIC -O3)

X0 1 2 3 OR2_X1
X1 1 2 4 XNOR2_X1
X2 5 4 6 OR2_X1
X3 5 4 7 XNOR2_X1
X4 8 7 9 NOR2_X1
X5 8 7 10 XNOR2_X1
X6 10 N69 N528 11 AOI21_X1
X7 12 10 13 XNOR2_X1
X8 13 14 15 16 OAI21_X1
X9 17 13 18 XOR2_X1
X10 19 18 N6180 XNOR2_X1
X11 16 18 19 20 OAI21_X1
X12 9 11 21 OR2_X1
X13 N528 N86 22 NAND2_X1
X14 3 6 23 NAND2_X1
X15 N511 N103 24 NAND2_X1
X16 25 26 27 NAND2_X1
X17 N494 N120 28 NAND2_X1
X18 29 30 31 32 AOI21_X1
X19 N477 N137 33 NAND2_X1
X20 34 35 36 37 AOI21_X1
X21 N460 N154 38 NAND2_X1
X22 39 40 41 42 AOI21_X1
X23 N443 N171 43 NAND2_X1
X24 44 45 46 47 AOI21_X1
X25 N426 N188 48 AND2_X1
X26 49 50 51 52 AOI21_X1
X27 N409 N205 53 NAND2_X1
X28 54 55 56 57 AOI21_X1
X29 N392 N222 58 AND2_X1
X30 59 60 61 AND2_X1
X31 N375 N239 62 NAND2_X1
X32 N358 N256 63 NAND2_X1
X33 64 65 66 67 OAI21_X1
X34 63 67 68 NAND2_X1
X35 63 67 69 XOR2_X1
X36 62 69 70 NAND2_X1
X37 62 69 71 XNOR2_X1
X38 61 71 72 OR2_X1
X39 61 71 73 XNOR2_X1
X40 58 73 74 OR2_X1
X41 58 73 75 XNOR2_X1
X42 57 75 76 NOR2_X1
X43 57 75 77 XOR2_X1
X44 53 77 78 XNOR2_X1
X45 52 78 79 OR2_X1
X46 52 78 80 XNOR2_X1
X47 48 80 81 OR2_X1
X48 48 80 82 XNOR2_X1
X49 47 82 83 NOR2_X1
X50 47 82 84 XOR2_X1
X51 43 84 85 XNOR2_X1
X52 42 85 86 NOR2_X1
X53 42 85 87 XOR2_X1
X54 38 87 88 XNOR2_X1
X55 37 88 89 NOR2_X1
X56 37 88 90 XOR2_X1
X57 33 90 91 XNOR2_X1
X58 32 91 92 NOR2_X1
X59 32 91 93 XOR2_X1
X60 28 93 94 XNOR2_X1
X61 94 26 25 95 AOI21_X1
X62 27 94 96 XOR2_X1
X63 96 N103 N511 97 AOI21_X1
X64 24 96 98 XOR2_X1
X65 98 6 3 99 AOI21_X1
X66 23 98 100 XOR2_X1
X67 100 N86 N528 101 AOI21_X1
X68 22 100 102 XNOR2_X1
X69 21 102 103 AND2_X1
X70 21 102 104 XOR2_X1
X71 20 104 N6190 XNOR2_X1
X72 103 104 20 105 AOI21_X1
X73 99 101 106 NOR2_X1
X74 N528 N103 107 NAND2_X1
X75 95 97 108 NOR2_X1
X76 N511 N120 109 NAND2_X1
X77 109 110 INV_X1
X78 92 93 28 111 AOI21_X1
X79 N494 N137 112 AND2_X1
X80 89 90 33 113 AOI21_X1
X81 N477 N154 114 NAND2_X1
X82 86 87 38 115 AOI21_X1
X83 N460 N171 116 NAND2_X1
X84 83 84 43 117 AOI21_X1
X85 N443 N188 118 NAND2_X1
X86 79 81 119 NAND2_X1
X87 N426 N205 120 NAND2_X1
X88 76 77 53 121 AOI21_X1
X89 N409 N222 122 NAND2_X1
X90 N392 N239 123 NAND2_X1
X91 N375 N256 124 NAND2_X1
X92 68 70 125 NAND2_X1
X93 124 125 126 NAND2_X1
X94 124 125 127 XOR2_X1
X95 123 127 128 NAND2_X1
X96 123 127 129 XNOR2_X1
X97 129 74 72 130 AOI21_X1
X98 72 74 129 131 AND3_X1
X99 130 131 132 OR2_X1
X100 132 N222 N409 133 AOI21_X1
X101 122 132 134 XOR2_X1
X102 121 134 135 NOR2_X1
X103 121 134 136 XOR2_X1
X104 120 136 137 XNOR2_X1
X105 137 81 79 138 AOI21_X1
X106 119 137 139 XOR2_X1
X107 139 N188 N443 140 AOI21_X1
X108 118 139 141 XOR2_X1
X109 117 141 142 NOR2_X1
X110 117 141 143 XOR2_X1
X111 116 143 144 XNOR2_X1
X112 115 144 145 NOR2_X1
X113 115 144 146 XOR2_X1
X114 114 146 147 XNOR2_X1
X115 113 147 148 OR2_X1
X116 113 147 149 XNOR2_X1
X117 112 149 150 OR2_X1
X118 112 149 151 XNOR2_X1
X119 111 151 152 OR2_X1
X120 111 151 153 XNOR2_X1
X121 110 153 154 OR2_X1
X122 110 153 155 XNOR2_X1
X123 108 155 156 NOR2_X1
X124 108 155 157 XNOR2_X1
X125 157 N103 N528 158 AOI21_X1
X126 107 157 159 XNOR2_X1
X127 159 101 99 160 OAI21_X1
X128 106 159 161 XOR2_X1
X129 105 161 N6200 XNOR2_X1
X130 160 161 105 162 OAI21_X1
X131 156 158 163 OR2_X1
X132 N528 N120 164 NAND2_X1
X133 152 154 165 NAND2_X1
X134 N511 N137 166 NAND2_X1
X135 148 150 167 NAND2_X1
X136 N494 N154 168 NAND2_X1
X137 145 146 114 169 AOI21_X1
X138 N477 N171 170 NAND2_X1
X139 142 143 116 171 AOI21_X1
X140 N460 N188 172 NAND2_X1
X141 172 173 INV_X1
X142 138 140 174 OR2_X1
X143 N443 N205 175 NAND2_X1
X144 135 136 120 176 AOI21_X1
X145 N426 N222 177 NAND2_X1
X146 130 133 178 NOR2_X1
X147 N409 N239 179 NAND2_X1
X148 N392 N256 180 NAND2_X1
X149 126 128 181 NAND2_X1
X150 180 181 182 NAND2_X1
X151 180 181 183 XOR2_X1
X152 179 183 184 NAND2_X1
X153 179 183 185 XNOR2_X1
X154 178 185 186 NOR2_X1
X155 178 185 187 XOR2_X1
X156 177 187 188 XNOR2_X1
X157 176 188 189 NOR2_X1
X158 176 188 190 XOR2_X1
X159 175 190 191 XNOR2_X1
X160 191 192 INV_X1
X161 174 192 193 NAND2_X1
X162 174 191 194 XOR2_X1
X163 173 194 195 XNOR2_X1
X164 171 195 196 NOR2_X1
X165 171 195 197 NAND2_X1
X166 171 195 198 XNOR2_X1
X167 170 198 199 XOR2_X1
X168 169 199 200 NOR2_X1
X169 169 199 201 XOR2_X1
X170 168 201 202 XNOR2_X1
X171 202 150 148 203 AOI21_X1
X172 167 202 204 XOR2_X1
X173 204 N137 N511 205 AOI21_X1
X174 166 204 206 XOR2_X1
X175 206 154 152 207 AOI21_X1
X176 165 206 208 XOR2_X1
X177 208 N120 N528 209 AOI21_X1
X178 164 208 210 XNOR2_X1
X179 163 210 211 AND2_X1
X180 163 210 212 XOR2_X1
X181 162 212 N6210 XNOR2_X1
X182 211 212 162 213 AOI21_X1
X183 207 209 214 NOR2_X1
X184 N528 N137 215 NAND2_X1
X185 203 205 216 NOR2_X1
X186 N511 N154 217 NAND2_X1
X187 217 218 INV_X1
X188 200 201 168 219 AOI21_X1
X189 N494 N171 220 AND2_X1
X190 196 197 170 221 AOI21_X1
X191 N477 N188 222 NAND2_X1
X192 193 194 173 223 OAI21_X1
X193 223 224 INV_X1
X194 N460 N205 225 NAND2_X1
X195 189 190 175 226 AOI21_X1
X196 N443 N222 227 NAND2_X1
X197 186 187 177 228 AOI21_X1
X198 N426 N239 229 NAND2_X1
X199 N409 N256 230 NAND2_X1
X200 182 184 231 NAND2_X1
X201 230 231 232 NAND2_X1
X202 230 231 233 XOR2_X1
X203 229 233 234 NAND2_X1
X204 229 233 235 XNOR2_X1
X205 228 235 236 NOR2_X1
X206 228 235 237 XOR2_X1
X207 227 237 238 XNOR2_X1
X208 226 238 239 NOR2_X1
X209 226 238 240 XOR2_X1
X210 225 240 241 XNOR2_X1
X211 224 241 242 NOR2_X1
X212 223 241 243 XOR2_X1
X213 243 N188 N477 244 AOI21_X1
X214 222 243 245 XOR2_X1
X215 221 245 246 OR2_X1
X216 221 245 247 XNOR2_X1
X217 220 247 248 OR2_X1
X218 220 247 249 XNOR2_X1
X219 219 249 250 OR2_X1
X220 219 249 251 XNOR2_X1
X221 218 251 252 OR2_X1
X222 218 251 253 XNOR2_X1
X223 216 253 254 NOR2_X1
X224 216 253 255 XNOR2_X1
X225 255 N137 N528 256 AOI21_X1
X226 215 255 257 XNOR2_X1
X227 257 209 207 258 OAI21_X1
X228 214 257 259 XOR2_X1
X229 213 259 N6220 XNOR2_X1
X230 258 259 213 260 OAI21_X1
X231 254 256 261 OR2_X1
X232 N528 N154 262 NAND2_X1
X233 250 252 263 NAND2_X1
X234 N511 N171 264 NAND2_X1
X235 246 248 265 NAND2_X1
X236 N494 N188 266 NAND2_X1
X237 242 244 267 NOR2_X1
X238 N477 N205 268 NAND2_X1
X239 239 240 225 269 AOI21_X1
X240 N460 N222 270 NAND2_X1
X241 236 237 227 271 AOI21_X1
X242 N443 N239 272 NAND2_X1
X243 N426 N256 273 NAND2_X1
X244 232 234 274 NAND2_X1
X245 273 274 275 NAND2_X1
X246 273 274 276 XOR2_X1
X247 272 276 277 NAND2_X1
X248 272 276 278 XNOR2_X1
X249 271 278 279 NOR2_X1
X250 271 278 280 XOR2_X1
X251 270 280 281 XNOR2_X1
X252 269 281 282 NOR2_X1
X253 269 281 283 XOR2_X1
X254 268 283 284 XNOR2_X1
X255 267 284 285 NOR2_X1
X256 267 284 286 XOR2_X1
X257 266 286 287 XNOR2_X1
X258 287 248 246 288 AOI21_X1
X259 265 287 289 XOR2_X1
X260 289 N171 N511 290 AOI21_X1
X261 264 289 291 XOR2_X1
X262 291 252 250 292 AOI21_X1
X263 263 291 293 XOR2_X1
X264 293 N154 N528 294 AOI21_X1
X265 262 293 295 XNOR2_X1
X266 261 295 296 AND2_X1
X267 261 295 297 XOR2_X1
X268 260 297 N6230 XNOR2_X1
X269 296 297 260 298 AOI21_X1
X270 292 294 299 NOR2_X1
X271 N528 N171 300 NAND2_X1
X272 300 301 INV_X1
X273 N511 N188 302 NAND2_X1
X274 285 286 266 303 AOI21_X1
X275 N494 N205 304 NAND2_X1
X276 282 283 268 305 AOI21_X1
X277 N477 N222 306 AND2_X1
X278 279 280 270 307 AOI21_X1
X279 N460 N239 308 NAND2_X1
X280 N443 N256 309 NAND2_X1
X281 275 277 310 NAND2_X1
X282 309 310 311 NAND2_X1
X283 309 310 312 XOR2_X1
X284 308 312 313 NAND2_X1
X285 308 312 314 XNOR2_X1
X286 307 314 315 OR2_X1
X287 307 314 316 XNOR2_X1
X288 306 316 317 OR2_X1
X289 306 316 318 XNOR2_X1
X290 305 318 319 NOR2_X1
X291 305 318 320 XOR2_X1
X292 304 320 321 XNOR2_X1
X293 303 321 322 OR2_X1
X294 303 321 323 XOR2_X1
X295 302 323 324 NAND2_X1
X296 302 323 325 XOR2_X1
X297 325 290 288 326 OAI21_X1
X298 288 290 325 327 OR3_X1
X299 326 327 328 NAND2_X1
X300 300 328 329 XNOR2_X1
X301 329 294 292 330 OAI21_X1
X302 299 329 331 XOR2_X1
X303 298 331 N6240 XNOR2_X1
X304 330 331 298 332 OAI21_X1
X305 326 328 301 333 OAI21_X1
X306 N528 N188 334 NAND2_X1
X307 N511 N205 335 NAND2_X1
X308 319 320 304 336 AOI21_X1
X309 N477 N239 337 NAND2_X1
X310 N460 N256 338 NAND2_X1
X311 311 313 339 NAND2_X1
X312 338 339 340 NAND2_X1
X313 338 339 341 XOR2_X1
X314 337 341 342 NAND2_X1
X315 337 341 343 XNOR2_X1
X316 343 317 315 344 AOI21_X1
X317 315 317 343 345 AND3_X1
X318 344 345 346 OR2_X1
X319 346 N222 N494 347 AOI21_X1
X320 N494 N222 346 348 AND3_X1
X321 347 348 349 OR2_X1
X322 336 349 350 NOR2_X1
X323 336 349 351 XOR2_X1
X324 335 351 352 XNOR2_X1
X325 352 324 322 353 AOI21_X1
X326 322 324 352 354 AND3_X1
X327 353 354 355 NOR2_X1
X328 334 355 356 AND2_X1
X329 334 355 357 XOR2_X1
X330 333 357 358 AND2_X1
X331 333 357 359 XOR2_X1
X332 332 359 N6250 XNOR2_X1
X333 358 359 332 360 AOI21_X1
X334 N528 N205 361 NAND2_X1
X335 350 351 335 362 AOI21_X1
X336 N511 N222 363 NAND2_X1
X337 344 347 364 NOR2_X1
X338 N494 N239 365 NAND2_X1
X339 N477 N256 366 NAND2_X1
X340 340 342 367 NAND2_X1
X341 366 367 368 NAND2_X1
X342 366 367 369 XOR2_X1
X343 365 369 370 NAND2_X1
X344 365 369 371 XNOR2_X1
X345 364 371 372 NOR2_X1
X346 364 371 373 XOR2_X1
X347 363 373 374 XNOR2_X1
X348 362 374 375 OR2_X1
X349 362 374 376 XOR2_X1
X350 361 376 377 NAND2_X1
X351 361 376 378 XOR2_X1
X352 378 356 353 379 OAI21_X1
X353 353 356 378 380 OR3_X1
X354 379 380 381 NAND2_X1
X355 360 381 N6260 XNOR2_X1
X356 379 381 360 382 OAI21_X1
X357 N528 N222 383 NAND2_X1
X358 372 373 363 384 AOI21_X1
X359 N511 N239 385 NAND2_X1
X360 N494 N256 386 NAND2_X1
X361 368 370 387 NAND2_X1
X362 386 387 388 AND2_X1
X363 386 387 389 XOR2_X1
X364 385 389 390 XNOR2_X1
X365 384 390 391 NOR2_X1
X366 384 390 392 XOR2_X1
X367 383 392 393 AND2_X1
X368 383 392 394 XNOR2_X1
X369 394 377 375 395 AOI21_X1
X370 375 377 394 396 AND3_X1
X371 395 396 397 NOR2_X1
X372 382 397 N6270 XNOR2_X1
X373 395 397 382 398 AOI21_X1
X374 N528 N239 399 NAND2_X1
X375 N511 N256 400 AND2_X1
X376 388 389 385 401 AOI21_X1
X377 400 401 402 OR2_X1
X378 400 401 403 XOR2_X1
X379 399 403 404 NAND2_X1
X380 399 403 405 XOR2_X1
X381 405 393 391 406 OAI21_X1
X382 391 393 405 407 OR3_X1
X383 406 407 408 NAND2_X1
X384 398 408 N6280 XNOR2_X1
X385 N528 N256 402 404 409 AOI22_X1
X386 406 408 398 410 OAI21_X1
X387 N528 N256 402 404 411 AND4_X1
X388 409 411 412 NOR2_X1
X389 409 410 412 N6287 AOI21_X1
X390 410 412 N6288 XNOR2_X1
X391 N1 N273 N545 AND2_X1
X392 N273 N18 413 NAND2_X1
X393 N273 N290 N18 N35 414 AND4_X1
X394 N273 N290 N18 N35 415 NAND4_X1
X395 N290 N18 N35 N273 416 AOI22_X1
X396 N1 N290 417 NAND2_X1
X397 N1 N273 N290 N18 418 NAND4_X1
X398 418 416 414 419 OAI21_X1
X399 419 420 INV_X1
X400 N1 N307 421 NAND2_X1
X401 414 416 418 422 OR3_X1
X402 419 422 423 NAND2_X1
X403 420 421 422 424 AOI21_X1
X404 N307 N18 425 NAND2_X1
X405 N273 N290 N35 N52 426 AND4_X1
X406 N290 N35 N52 N273 427 AOI22_X1
X407 415 426 427 428 OAI21_X1
X408 428 429 INV_X1
X409 415 426 427 430 OR3_X1
X410 428 430 431 NAND2_X1
X411 425 431 432 XOR2_X1
X412 424 432 433 NOR2_X1
X413 N1 N324 434 NAND2_X1
X414 424 432 435 XOR2_X1
X415 433 434 435 436 AOI21_X1
X416 N324 N18 437 NAND2_X1
X417 429 430 425 438 AOI21_X1
X418 N307 N35 439 NAND2_X1
X419 N273 N290 N52 N69 440 AND4_X1
X420 N290 N52 N69 N273 441 AOI22_X1
X421 440 441 442 NOR2_X1
X422 426 442 443 NOR2_X1
X423 426 442 444 XOR2_X1
X424 439 444 445 XNOR2_X1
X425 438 445 446 NOR2_X1
X426 438 445 447 XOR2_X1
X427 437 447 448 XNOR2_X1
X428 436 448 449 NOR2_X1
X429 N1 N341 450 NAND2_X1
X430 436 448 451 NAND2_X1
X431 436 448 452 XNOR2_X1
X432 452 N341 N1 453 AOI21_X1
X433 449 450 451 454 AOI21_X1
X434 N341 N18 455 NAND2_X1
X435 446 447 437 456 AOI21_X1
X436 N324 N35 457 NAND2_X1
X437 443 444 439 458 AOI21_X1
X438 N307 N52 459 NAND2_X1
X439 N273 N290 N69 N86 460 AND4_X1
X440 N290 N69 N86 N273 461 AOI22_X1
X441 460 461 462 NOR2_X1
X442 440 462 463 NOR2_X1
X443 440 462 464 XOR2_X1
X444 459 464 465 XNOR2_X1
X445 458 465 466 NOR2_X1
X446 458 465 467 XOR2_X1
X447 457 467 468 XNOR2_X1
X448 456 468 469 NOR2_X1
X449 456 468 470 NAND2_X1
X450 456 468 471 XNOR2_X1
X451 471 N18 N341 472 AOI21_X1
X452 455 471 473 XNOR2_X1
X453 473 453 449 474 OAI21_X1
X454 N1 N358 475 AND2_X1
X455 454 473 476 XOR2_X1
X456 474 475 476 477 OAI21_X1
X457 N358 N18 478 NAND2_X1
X458 478 479 INV_X1
X459 469 470 455 480 AOI21_X1
X460 N341 N35 481 NAND2_X1
X461 466 467 457 482 AOI21_X1
X462 N324 N52 483 NAND2_X1
X463 463 464 459 484 AOI21_X1
X464 N307 N69 485 NAND2_X1
X465 N273 N290 N86 N103 486 AND4_X1
X466 N290 N86 N103 N273 487 AOI22_X1
X467 486 487 488 NOR2_X1
X468 460 488 489 NOR2_X1
X469 460 488 490 XOR2_X1
X470 485 490 491 XNOR2_X1
X471 484 491 492 NOR2_X1
X472 484 491 493 XOR2_X1
X473 483 493 494 XNOR2_X1
X474 482 494 495 NOR2_X1
X475 482 494 496 NAND2_X1
X476 482 494 497 XNOR2_X1
X477 497 N35 N341 498 AOI21_X1
X478 481 497 499 XNOR2_X1
X479 499 472 469 500 OAI21_X1
X480 480 499 501 XOR2_X1
X481 478 501 502 XNOR2_X1
X482 477 502 503 NAND2_X1
X483 N1 N375 504 AND2_X1
X484 477 502 505 XNOR2_X1
X485 503 504 505 506 OAI21_X1
X486 N375 N18 507 NAND2_X1
X487 507 508 INV_X1
X488 500 501 479 509 OAI21_X1
X489 N358 N35 510 NAND2_X1
X490 510 511 INV_X1
X491 495 496 481 512 AOI21_X1
X492 N341 N52 513 NAND2_X1
X493 492 493 483 514 AOI21_X1
X494 N324 N69 515 NAND2_X1
X495 489 490 485 516 AOI21_X1
X496 N307 N86 517 NAND2_X1
X497 N273 N290 N103 N120 518 AND4_X1
X498 N290 N103 N120 N273 519 AOI22_X1
X499 518 519 520 NOR2_X1
X500 486 520 521 NOR2_X1
X501 486 520 522 XOR2_X1
X502 517 522 523 XNOR2_X1
X503 516 523 524 NOR2_X1
X504 516 523 525 XOR2_X1
X505 515 525 526 XNOR2_X1
X506 514 526 527 NOR2_X1
X507 514 526 528 NAND2_X1
X508 514 526 529 XNOR2_X1
X509 529 N52 N341 530 AOI21_X1
X510 513 529 531 XNOR2_X1
X511 531 498 495 532 OAI21_X1
X512 512 531 533 XOR2_X1
X513 510 533 534 XNOR2_X1
X514 509 534 535 NAND2_X1
X515 509 534 536 XNOR2_X1
X516 507 536 537 XNOR2_X1
X517 506 537 538 NAND2_X1
X518 N1 N392 539 AND2_X1
X519 506 537 540 XNOR2_X1
X520 538 539 540 541 OAI21_X1
X521 N392 N18 542 NAND2_X1
X522 542 543 INV_X1
X523 535 536 508 544 OAI21_X1
X524 N375 N35 545 NAND2_X1
X525 545 546 INV_X1
X526 532 533 511 547 OAI21_X1
X527 N358 N52 548 NAND2_X1
X528 548 549 INV_X1
X529 527 528 513 550 AOI21_X1
X530 N341 N69 551 NAND2_X1
X531 524 525 515 552 AOI21_X1
X532 N324 N86 553 NAND2_X1
X533 521 522 517 554 AOI21_X1
X534 N307 N103 555 NAND2_X1
X535 N273 N290 N120 N137 556 AND4_X1
X536 N290 N120 N137 N273 557 AOI22_X1
X537 556 557 558 NOR2_X1
X538 518 558 559 NOR2_X1
X539 518 558 560 XOR2_X1
X540 555 560 561 XNOR2_X1
X541 554 561 562 NOR2_X1
X542 554 561 563 XOR2_X1
X543 553 563 564 XNOR2_X1
X544 552 564 565 NOR2_X1
X545 552 564 566 NAND2_X1
X546 552 564 567 XNOR2_X1
X547 567 N69 N341 568 AOI21_X1
X548 551 567 569 XNOR2_X1
X549 569 530 527 570 OAI21_X1
X550 550 569 571 XOR2_X1
X551 548 571 572 XNOR2_X1
X552 547 572 573 NAND2_X1
X553 547 572 574 XNOR2_X1
X554 545 574 575 XNOR2_X1
X555 544 575 576 NAND2_X1
X556 544 575 577 XNOR2_X1
X557 542 577 578 XNOR2_X1
X558 541 578 579 NAND2_X1
X559 N1 N409 580 AND2_X1
X560 541 578 581 XNOR2_X1
X561 579 580 581 582 OAI21_X1
X562 N409 N18 583 NAND2_X1
X563 583 584 INV_X1
X564 576 577 543 585 OAI21_X1
X565 N392 N35 586 NAND2_X1
X566 586 587 INV_X1
X567 573 574 546 588 OAI21_X1
X568 N375 N52 589 NAND2_X1
X569 589 590 INV_X1
X570 570 571 549 591 OAI21_X1
X571 N358 N69 592 NAND2_X1
X572 592 593 INV_X1
X573 565 566 551 594 AOI21_X1
X574 N341 N86 595 NAND2_X1
X575 562 563 553 596 AOI21_X1
X576 N324 N103 597 NAND2_X1
X577 559 560 555 598 AOI21_X1
X578 N307 N120 599 NAND2_X1
X579 N273 N290 N137 N154 600 AND4_X1
X580 N290 N137 N154 N273 601 AOI22_X1
X581 600 601 602 NOR2_X1
X582 556 602 603 NOR2_X1
X583 556 602 604 XOR2_X1
X584 599 604 605 XNOR2_X1
X585 598 605 606 NOR2_X1
X586 598 605 607 XOR2_X1
X587 597 607 608 XNOR2_X1
X588 596 608 609 NOR2_X1
X589 596 608 610 NAND2_X1
X590 596 608 611 XNOR2_X1
X591 611 N86 N341 612 AOI21_X1
X592 595 611 613 XNOR2_X1
X593 613 568 565 614 OAI21_X1
X594 594 613 615 XOR2_X1
X595 592 615 616 XNOR2_X1
X596 591 616 617 NAND2_X1
X597 591 616 618 XNOR2_X1
X598 589 618 619 XNOR2_X1
X599 588 619 620 NAND2_X1
X600 588 619 621 XNOR2_X1
X601 586 621 622 XNOR2_X1
X602 585 622 623 NAND2_X1
X603 585 622 624 XNOR2_X1
X604 583 624 625 XNOR2_X1
X605 582 625 626 NAND2_X1
X606 N1 N426 627 AND2_X1
X607 582 625 628 XNOR2_X1
X608 626 627 628 629 OAI21_X1
X609 N426 N18 630 NAND2_X1
X610 630 631 INV_X1
X611 623 624 584 632 OAI21_X1
X612 N409 N35 633 NAND2_X1
X613 633 634 INV_X1
X614 620 621 587 635 OAI21_X1
X615 N392 N52 636 NAND2_X1
X616 636 637 INV_X1
X617 617 618 590 638 OAI21_X1
X618 N375 N69 639 NAND2_X1
X619 639 640 INV_X1
X620 614 615 593 641 OAI21_X1
X621 N358 N86 642 NAND2_X1
X622 642 643 INV_X1
X623 609 610 595 644 AOI21_X1
X624 N341 N103 645 NAND2_X1
X625 606 607 597 646 AOI21_X1
X626 N324 N120 647 NAND2_X1
X627 603 604 599 648 AOI21_X1
X628 N307 N137 649 NAND2_X1
X629 N273 N290 N154 N171 650 AND4_X1
X630 N290 N154 N171 N273 651 AOI22_X1
X631 650 651 652 NOR2_X1
X632 600 652 653 NOR2_X1
X633 600 652 654 XOR2_X1
X634 649 654 655 XNOR2_X1
X635 648 655 656 NOR2_X1
X636 648 655 657 XOR2_X1
X637 647 657 658 XNOR2_X1
X638 646 658 659 NOR2_X1
X639 646 658 660 NAND2_X1
X640 646 658 661 XNOR2_X1
X641 661 N103 N341 662 AOI21_X1
X642 645 661 663 XNOR2_X1
X643 663 612 609 664 OAI21_X1
X644 644 663 665 XOR2_X1
X645 642 665 666 XNOR2_X1
X646 641 666 667 NAND2_X1
X647 641 666 668 XNOR2_X1
X648 639 668 669 XNOR2_X1
X649 638 669 670 NAND2_X1
X650 638 669 671 XNOR2_X1
X651 636 671 672 XNOR2_X1
X652 635 672 673 NAND2_X1
X653 635 672 674 XNOR2_X1
X654 633 674 675 XNOR2_X1
X655 632 675 676 NAND2_X1
X656 632 675 677 XNOR2_X1
X657 630 677 678 XNOR2_X1
X658 629 678 679 NAND2_X1
X659 N1 N443 680 AND2_X1
X660 629 678 681 XNOR2_X1
X661 679 680 681 682 OAI21_X1
X662 N443 N18 683 NAND2_X1
X663 683 684 INV_X1
X664 676 677 631 685 OAI21_X1
X665 N426 N35 686 NAND2_X1
X666 686 687 INV_X1
X667 673 674 634 688 OAI21_X1
X668 N409 N52 689 NAND2_X1
X669 689 690 INV_X1
X670 670 671 637 691 OAI21_X1
X671 N392 N69 692 NAND2_X1
X672 692 693 INV_X1
X673 667 668 640 694 OAI21_X1
X674 N375 N86 695 NAND2_X1
X675 695 696 INV_X1
X676 664 665 643 697 OAI21_X1
X677 N358 N103 698 NAND2_X1
X678 698 699 INV_X1
X679 659 660 645 700 AOI21_X1
X680 N341 N120 701 NAND2_X1
X681 656 657 647 702 AOI21_X1
X682 N324 N137 703 NAND2_X1
X683 653 654 649 704 AOI21_X1
X684 N307 N154 705 NAND2_X1
X685 N273 N290 N171 N188 706 AND4_X1
X686 N290 N171 N188 N273 707 AOI22_X1
X687 706 707 708 NOR2_X1
X688 650 708 709 NOR2_X1
X689 650 708 710 XOR2_X1
X690 705 710 711 XNOR2_X1
X691 704 711 712 NOR2_X1
X692 704 711 713 XOR2_X1
X693 703 713 714 XNOR2_X1
X694 702 714 715 NOR2_X1
X695 702 714 716 NAND2_X1
X696 702 714 717 XNOR2_X1
X697 717 N120 N341 718 AOI21_X1
X698 701 717 719 XNOR2_X1
X699 719 662 659 720 OAI21_X1
X700 700 719 721 XOR2_X1
X701 698 721 722 XNOR2_X1
X702 697 722 723 NAND2_X1
X703 697 722 724 XNOR2_X1
X704 695 724 725 XNOR2_X1
X705 694 725 726 NAND2_X1
X706 694 725 727 XNOR2_X1
X707 692 727 728 XNOR2_X1
X708 691 728 729 NAND2_X1
X709 691 728 730 XNOR2_X1
X710 689 730 731 XNOR2_X1
X711 688 731 732 NAND2_X1
X712 688 731 733 XNOR2_X1
X713 686 733 734 XNOR2_X1
X714 685 734 735 NAND2_X1
X715 685 734 736 XNOR2_X1
X716 683 736 737 XNOR2_X1
X717 682 737 738 NAND2_X1
X718 N1 N460 739 AND2_X1
X719 682 737 740 XNOR2_X1
X720 738 739 740 741 OAI21_X1
X721 N460 N18 742 NAND2_X1
X722 742 743 INV_X1
X723 735 736 684 744 OAI21_X1
X724 N443 N35 745 NAND2_X1
X725 745 746 INV_X1
X726 732 733 687 747 OAI21_X1
X727 N426 N52 748 NAND2_X1
X728 748 749 INV_X1
X729 729 730 690 750 OAI21_X1
X730 N409 N69 751 NAND2_X1
X731 751 752 INV_X1
X732 726 727 693 753 OAI21_X1
X733 N392 N86 754 NAND2_X1
X734 754 755 INV_X1
X735 723 724 696 756 OAI21_X1
X736 N375 N103 757 NAND2_X1
X737 757 758 INV_X1
X738 720 721 699 759 OAI21_X1
X739 N358 N120 760 NAND2_X1
X740 760 761 INV_X1
X741 715 716 701 762 AOI21_X1
X742 N341 N137 763 NAND2_X1
X743 712 713 703 764 AOI21_X1
X744 N324 N154 765 NAND2_X1
X745 709 710 705 766 AOI21_X1
X746 N307 N171 767 NAND2_X1
X747 N290 N205 768 NAND2_X1
X748 N273 N290 N188 N205 769 AND4_X1
X749 N290 N188 N205 N273 770 AOI22_X1
X750 769 770 771 NOR2_X1
X751 706 771 772 NOR2_X1
X752 706 771 773 XOR2_X1
X753 767 773 774 XNOR2_X1
X754 766 774 775 NOR2_X1
X755 766 774 776 XOR2_X1
X756 765 776 777 XNOR2_X1
X757 764 777 778 NOR2_X1
X758 764 777 779 NAND2_X1
X759 764 777 780 XNOR2_X1
X760 780 N137 N341 781 AOI21_X1
X761 763 780 782 XNOR2_X1
X762 782 718 715 783 OAI21_X1
X763 762 782 784 XOR2_X1
X764 760 784 785 XNOR2_X1
X765 759 785 786 NAND2_X1
X766 759 785 787 XNOR2_X1
X767 757 787 788 XNOR2_X1
X768 756 788 789 NAND2_X1
X769 756 788 790 XNOR2_X1
X770 754 790 791 XNOR2_X1
X771 753 791 792 NAND2_X1
X772 753 791 793 XNOR2_X1
X773 751 793 794 XNOR2_X1
X774 750 794 795 NAND2_X1
X775 750 794 796 XNOR2_X1
X776 748 796 797 XNOR2_X1
X777 747 797 798 NAND2_X1
X778 747 797 799 XNOR2_X1
X779 745 799 800 XNOR2_X1
X780 744 800 801 NAND2_X1
X781 744 800 802 XNOR2_X1
X782 742 802 803 XNOR2_X1
X783 741 803 804 NAND2_X1
X784 N1 N477 805 AND2_X1
X785 741 803 806 XNOR2_X1
X786 804 805 806 807 OAI21_X1
X787 N477 N18 808 NAND2_X1
X788 808 809 INV_X1
X789 801 802 743 810 OAI21_X1
X790 N460 N35 811 NAND2_X1
X791 811 812 INV_X1
X792 798 799 746 813 OAI21_X1
X793 N443 N52 814 NAND2_X1
X794 814 815 INV_X1
X795 795 796 749 816 OAI21_X1
X796 N426 N69 817 NAND2_X1
X797 817 818 INV_X1
X798 792 793 752 819 OAI21_X1
X799 N409 N86 820 NAND2_X1
X800 820 821 INV_X1
X801 789 790 755 822 OAI21_X1
X802 N392 N103 823 NAND2_X1
X803 823 824 INV_X1
X804 786 787 758 825 OAI21_X1
X805 N375 N120 826 NAND2_X1
X806 826 827 INV_X1
X807 783 784 761 828 OAI21_X1
X808 N358 N137 829 NAND2_X1
X809 829 830 INV_X1
X810 778 779 763 831 AOI21_X1
X811 N341 N154 832 NAND2_X1
X812 775 776 765 833 AOI21_X1
X813 N324 N171 834 NAND2_X1
X814 772 773 767 835 AOI21_X1
X815 N307 N188 836 NAND2_X1
X816 N273 N222 837 NAND2_X1
X817 N273 N290 N205 N222 838 NAND4_X1
X818 768 837 839 XOR2_X1
X819 769 839 840 NOR2_X1
X820 769 839 841 XOR2_X1
X821 836 841 842 XNOR2_X1
X822 835 842 843 NOR2_X1
X823 835 842 844 XOR2_X1
X824 834 844 845 XNOR2_X1
X825 833 845 846 NOR2_X1
X826 833 845 847 NAND2_X1
X827 833 845 848 XNOR2_X1
X828 848 N154 N341 849 AOI21_X1
X829 832 848 850 XNOR2_X1
X830 850 781 778 851 OAI21_X1
X831 831 850 852 XOR2_X1
X832 829 852 853 XNOR2_X1
X833 828 853 854 NAND2_X1
X834 828 853 855 XNOR2_X1
X835 826 855 856 XNOR2_X1
X836 825 856 857 NAND2_X1
X837 825 856 858 XNOR2_X1
X838 823 858 859 XNOR2_X1
X839 822 859 860 NAND2_X1
X840 822 859 861 XNOR2_X1
X841 820 861 862 XNOR2_X1
X842 819 862 863 NAND2_X1
X843 819 862 864 XNOR2_X1
X844 817 864 865 XNOR2_X1
X845 816 865 866 NAND2_X1
X846 816 865 867 XNOR2_X1
X847 814 867 868 XNOR2_X1
X848 813 868 869 NAND2_X1
X849 813 868 870 XNOR2_X1
X850 811 870 871 XNOR2_X1
X851 810 871 872 NAND2_X1
X852 810 871 873 XNOR2_X1
X853 808 873 874 XNOR2_X1
X854 807 874 875 NAND2_X1
X855 N1 N494 876 AND2_X1
X856 807 874 877 XNOR2_X1
X857 875 876 877 878 OAI21_X1
X858 N494 N18 879 NAND2_X1
X859 879 880 INV_X1
X860 872 873 809 881 OAI21_X1
X861 N477 N35 882 NAND2_X1
X862 882 883 INV_X1
X863 869 870 812 884 OAI21_X1
X864 N460 N52 885 NAND2_X1
X865 885 886 INV_X1
X866 866 867 815 887 OAI21_X1
X867 N443 N69 888 NAND2_X1
X868 888 889 INV_X1
X869 863 864 818 890 OAI21_X1
X870 N426 N86 891 NAND2_X1
X871 891 892 INV_X1
X872 860 861 821 893 OAI21_X1
X873 N409 N103 894 NAND2_X1
X874 894 895 INV_X1
X875 857 858 824 896 OAI21_X1
X876 N392 N120 897 NAND2_X1
X877 897 898 INV_X1
X878 854 855 827 899 OAI21_X1
X879 N375 N137 900 NAND2_X1
X880 900 901 INV_X1
X881 851 852 830 902 OAI21_X1
X882 N358 N154 903 NAND2_X1
X883 903 904 INV_X1
X884 846 847 832 905 AOI21_X1
X885 N341 N171 906 NAND2_X1
X886 843 844 834 907 AOI21_X1
X887 N324 N188 908 NAND2_X1
X888 840 841 836 909 AOI21_X1
X889 N307 N205 910 NAND2_X1
X890 N273 N239 911 NAND2_X1
X891 N273 N290 N222 N239 912 AND4_X1
X892 N273 N290 N222 N239 913 NAND4_X1
X893 N290 N222 N239 N273 914 AOI22_X1
X894 838 912 914 915 OAI21_X1
X895 838 912 914 916 OR3_X1
X896 915 916 917 NAND2_X1
X897 910 915 916 918 NAND3_X1
X898 910 917 919 XOR2_X1
X899 909 919 920 NOR2_X1
X900 909 919 921 XOR2_X1
X901 908 921 922 XNOR2_X1
X902 907 922 923 NOR2_X1
X903 907 922 924 NAND2_X1
X904 907 922 925 XNOR2_X1
X905 925 N171 N341 926 AOI21_X1
X906 906 925 927 XNOR2_X1
X907 927 849 846 928 OAI21_X1
X908 905 927 929 XOR2_X1
X909 903 929 930 XNOR2_X1
X910 902 930 931 NAND2_X1
X911 902 930 932 XNOR2_X1
X912 900 932 933 XNOR2_X1
X913 899 933 934 NAND2_X1
X914 899 933 935 XNOR2_X1
X915 897 935 936 XNOR2_X1
X916 896 936 937 NAND2_X1
X917 896 936 938 XNOR2_X1
X918 894 938 939 XNOR2_X1
X919 893 939 940 NAND2_X1
X920 893 939 941 XNOR2_X1
X921 891 941 942 XNOR2_X1
X922 890 942 943 NAND2_X1
X923 890 942 944 XNOR2_X1
X924 888 944 945 XNOR2_X1
X925 887 945 946 NAND2_X1
X926 887 945 947 XNOR2_X1
X927 885 947 948 XNOR2_X1
X928 884 948 949 NAND2_X1
X929 884 948 950 XNOR2_X1
X930 882 950 951 XNOR2_X1
X931 881 951 952 NAND2_X1
X932 881 951 953 XNOR2_X1
X933 879 953 954 XNOR2_X1
X934 878 954 955 NAND2_X1
X935 N1 N511 956 AND2_X1
X936 878 954 957 XNOR2_X1
X937 956 957 958 OR2_X1
X938 955 956 957 959 OAI21_X1
X939 N511 N18 960 AND2_X1
X940 952 953 880 961 OAI21_X1
X941 N494 N35 962 AND2_X1
X942 949 950 883 963 OAI21_X1
X943 N477 N52 964 NAND2_X1
X944 964 965 INV_X1
X945 946 947 886 966 OAI21_X1
X946 N460 N69 967 NAND2_X1
X947 967 968 INV_X1
X948 943 944 889 969 OAI21_X1
X949 N443 N86 970 NAND2_X1
X950 970 971 INV_X1
X951 940 941 892 972 OAI21_X1
X952 N426 N103 973 NAND2_X1
X953 973 974 INV_X1
X954 937 938 895 975 OAI21_X1
X955 N409 N120 976 NAND2_X1
X956 976 977 INV_X1
X957 934 935 898 978 OAI21_X1
X958 N392 N137 979 NAND2_X1
X959 979 980 INV_X1
X960 931 932 901 981 OAI21_X1
X961 N375 N154 982 NAND2_X1
X962 982 983 INV_X1
X963 928 929 904 984 OAI21_X1
X964 N358 N171 985 NAND2_X1
X965 985 986 INV_X1
X966 923 924 906 987 AOI21_X1
X967 N341 N188 988 NAND2_X1
X968 920 921 908 989 AOI21_X1
X969 N324 N205 990 NAND2_X1
X970 915 918 991 NAND2_X1
X971 N307 N222 992 NAND2_X1
X972 992 993 INV_X1
X973 N256 913 994 NOR2_X1
X974 N256 913 995 OR2_X1
X975 N290 N239 N256 N273 996 AOI22_X1
X976 N273 N290 N239 N256 997 AND4_X1
X977 913 996 997 998 OAI21_X1
X978 992 995 998 999 AND3_X1
X979 992 995 998 1000 AOI21_X1
X980 999 1000 1001 NOR2_X1
X981 999 1000 915 918 1002 AOI211_X1
X982 915 918 999 1000 1003 OAI211_X1
X983 991 1001 1004 XOR2_X1
X984 990 1004 1005 XNOR2_X1
X985 989 1005 1006 NOR2_X1
X986 989 1005 1007 NAND2_X1
X987 989 1005 1008 XNOR2_X1
X988 988 1008 1009 XNOR2_X1
X989 1009 926 923 1010 OAI21_X1
X990 987 1009 1011 XOR2_X1
X991 985 1011 1012 XNOR2_X1
X992 984 1012 1013 NAND2_X1
X993 984 1012 1014 XNOR2_X1