* Nangila SPICE Auto-Synthesized Netlist
.SUBCKT INV_X1 A Z
M1 Z A 0 0 NMOS W=0.2u L=0.05u
M2 Z A 1 1 PMOS W=0.4u L=0.05u
.ENDS

.SUBCKT NAND2_X1 A1 A2 Z
M1 Z A1 1 1 PMOS W=0.4u L=0.05u
M2 Z A2 1 1 PMOS W=0.4u L=0.05u
M3 Z A1 int 0 NMOS W=0.2u L=0.05u
M4 int A2 0 0 NMOS W=0.2u L=0.05u
.ENDS

.SUBCKT AND2_X1 A1 A2 Z
X1 A1 A2 Z_bar NAND2_X1
X2 Z_bar Z INV_X1
.ENDS

.SUBCKT NOR2_X1 A1 A2 Z
M1 int1 A1 1 1 PMOS W=0.4u L=0.05u
M2 Z A2 int1 1 PMOS W=0.4u L=0.05u
M3 Z A1 0 0 NMOS W=0.2u L=0.05u
M4 Z A2 0 0 NMOS W=0.2u L=0.05u
.ENDS

.SUBCKT OR2_X1 A1 A2 Z
X1 A1 A2 Z_bar NOR2_X1
X2 Z_bar Z INV_X1
.ENDS

.SUBCKT XOR2_X1 A1 A2 Z
X1 A1 A2 int1 AND2_X1
X2 A1 A2 int2 NOR2_X1
X3 int1 int2 int3 NOR2_X1
X4 int3 Z INV_X1
.ENDS

.SUBCKT XNOR2_X1 A B Z
X1 A B Z_int XOR2_X1
X2 Z_int Z INV_X1
.ENDS

.SUBCKT BUF_X1 A Z
X1 A Z_bar INV_X1
X2 Z_bar Z INV_X1
.ENDS

.SUBCKT OAI21_X1 A B C Z
X1 A B C Z_bar AOI21_X1
X2 Z_bar Z INV_X1
.ENDS

.SUBCKT AOI21_X1 A B C Z
M1 Z A int1 1 PMOS W=0.4u L=0.05u
M2 int1 B 1 1 PMOS W=0.4u L=0.05u
M3 Z C 1 1 PMOS W=0.4u L=0.05u
M4 Z A 0 0 NMOS W=0.2u L=0.05u
M5 Z B 0 0 NMOS W=0.2u L=0.05u
M6 Z C 0 0 NMOS W=0.2u L=0.05u
.ENDS

.SUBCKT NAND3_X1 A1 A2 A3 Z
X1 A1 A2 int1 AND2_X1
X2 int1 A3 Z NAND2_X1
.ENDS

.SUBCKT AND3_X1 A1 A2 A3 Z
X1 A1 A2 A3 Z_bar NAND3_X1
X2 Z_bar Z INV_X1
.ENDS

.SUBCKT NOR3_X1 A1 A2 A3 Z
X1 A1 A2 int1 OR2_X1
X2 int1 A3 Z NOR2_X1
.ENDS

.SUBCKT OR3_X1 A1 A2 A3 Z
X1 A1 A2 A3 Z_bar NOR3_X1
X2 Z_bar Z INV_X1
.ENDS

.SUBCKT NAND4_X1 A1 A2 A3 A4 Z
X1 A1 A2 A3 int1 AND3_X1
X2 int1 A4 Z NAND2_X1
.ENDS

.SUBCKT AND4_X1 A1 A2 A3 A4 Z
X1 A1 A2 A3 A4 Z_bar NAND4_X1
X2 Z_bar Z INV_X1
.ENDS

.SUBCKT NOR4_X1 A1 A2 A3 A4 Z
X1 A1 A2 A3 int1 OR3_X1
X2 int1 A4 Z NOR2_X1
.ENDS

.SUBCKT OR4_X1 A1 A2 A3 A4 Z
X1 A1 A2 A3 A4 Z_bar NOR4_X1
X2 Z_bar Z INV_X1
.ENDS

.SUBCKT AOI22_X1 A B C D Z
X1 A B int1 AND2_X1
X2 C D int2 AND2_X1
X3 int1 int2 Z NOR2_X1
.ENDS

.SUBCKT OAI22_X1 A B C D Z
X1 A B int1 OR2_X1
X2 C D int2 OR2_X1
X3 int1 int2 Z NAND2_X1
.ENDS

.SUBCKT AOI211_X1 A B C D Z
X1 A B int1 AND2_X1
X2 int1 C D Z NOR3_X1
.ENDS

.SUBCKT OAI211_X1 A B C D Z
X1 A B int1 OR2_X1
X2 int1 C D Z NAND3_X1
.ENDS

.SUBCKT OAI33_X1 A B C D E F Z
X1 A B C int1 OR3_X1
X2 D E F int2 OR3_X1
X3 int1 int2 Z NAND2_X1
.ENDS

.SUBCKT AOI33_X1 A B C D E F Z
X1 A B C int1 AND3_X1
X2 D E F int2 AND3_X1
X3 int1 int2 Z NOR2_X1
.ENDS

.SUBCKT MUX2_X1 A B S Z
X1 S S_bar INV_X1
X2 A S_bar int1 AND2_X1
X3 B S int2 AND2_X1
X4 int1 int2 Z OR2_X1
.ENDS

.SUBCKT DFF_X1 D C Q QN
X1 D Q_int INV_X1
X2 Q_int Q INV_X1
X3 Q_int QN INV_X1
.ENDS

.SUBCKT DFFR_X1 D C RN Q QN
X1 D Q_int INV_X1
X2 Q_int Q INV_X1
X3 Q_int QN INV_X1
.ENDS

.SUBCKT DFFS_X1 C D Q QN SN
X1 D Q_int INV_X1
X2 Q_int Q INV_X1
X3 Q_int QN INV_X1
.ENDS

.SUBCKT DFFRS_X1 C D Q QN RN SN
X1 D Q_int INV_X1
X2 Q_int Q INV_X1
X3 Q_int QN INV_X1
.ENDS

* Provide VDD power source explicitly
Vvdd 1 0 1.8

* Auto-extracted Inputs:
V_N1 N1 0 1.8
V_N5 N5 0 0.0
V_N9 N9 0 1.8
V_N12 N12 0 0.0
V_N15 N15 0 1.8
V_N18 N18 0 0.0
V_N23 N23 0 1.8
V_N26 N26 0 0.0
V_N29 N29 0 1.8
V_N32 N32 0 0.0
V_N35 N35 0 1.8
V_N38 N38 0 0.0
V_N41 N41 0 1.8
V_N44 N44 0 0.0
V_N47 N47 0 1.8
V_N50 N50 0 0.0
V_N53 N53 0 1.8
V_N54 N54 0 0.0
V_N55 N55 0 1.8
V_N56 N56 0 0.0
V_N57 N57 0 1.8
V_N58 N58 0 0.0
V_N59 N59 0 1.8
V_N60 N60 0 0.0
V_N61 N61 0 1.8
V_N62 N62 0 0.0
V_N63 N63 0 1.8
V_N64 N64 0 0.0
V_N65 N65 0 1.8
V_N66 N66 0 0.0
V_N69 N69 0 1.8
V_N70 N70 0 0.0
V_N73 N73 0 1.8
V_N74 N74 0 0.0
V_N75 N75 0 1.8
V_N76 N76 0 0.0
V_N77 N77 0 1.8
V_N78 N78 0 0.0
V_N79 N79 0 1.8
V_N80 N80 0 0.0
V_N81 N81 0 1.8
V_N82 N82 0 0.0
V_N83 N83 0 1.8
V_N84 N84 0 0.0
V_N85 N85 0 1.8
V_N86 N86 0 0.0
V_N87 N87 0 1.8
V_N88 N88 0 0.0
V_N89 N89 0 1.8
V_N94 N94 0 0.0
V_N97 N97 0 1.8
V_N100 N100 0 0.0
V_N103 N103 0 1.8
V_N106 N106 0 0.0
V_N109 N109 0 1.8
V_N110 N110 0 0.0
V_N111 N111 0 1.8
V_N112 N112 0 0.0
V_N113 N113 0 1.8
V_N114 N114 0 0.0
V_N115 N115 0 1.8
V_N118 N118 0 0.0
V_N121 N121 0 1.8
V_N124 N124 0 0.0
V_N127 N127 0 1.8
V_N130 N130 0 0.0
V_N133 N133 0 1.8
V_N134 N134 0 0.0
V_N135 N135 0 1.8
V_N138 N138 0 0.0
V_N141 N141 0 1.8
V_N144 N144 0 0.0
V_N147 N147 0 1.8
V_N150 N150 0 0.0
V_N151 N151 0 1.8
V_N152 N152 0 0.0
V_N153 N153 0 1.8
V_N154 N154 0 0.0
V_N155 N155 0 1.8
V_N156 N156 0 0.0
V_N157 N157 0 1.8
V_N158 N158 0 0.0
V_N159 N159 0 1.8
V_N160 N160 0 0.0
V_N161 N161 0 1.8
V_N162 N162 0 0.0
V_N163 N163 0 1.8
V_N164 N164 0 0.0
V_N165 N165 0 1.8
V_N166 N166 0 0.0
V_N167 N167 0 1.8
V_N168 N168 0 0.0
V_N169 N169 0 1.8
V_N170 N170 0 0.0
V_N171 N171 0 1.8
V_N172 N172 0 0.0
V_N173 N173 0 1.8
V_N174 N174 0 0.0
V_N175 N175 0 1.8
V_N176 N176 0 0.0
V_N177 N177 0 1.8
V_N178 N178 0 0.0
V_N179 N179 0 1.8
V_N180 N180 0 0.0
V_N181 N181 0 1.8
V_N182 N182 0 0.0
V_N183 N183 0 1.8
V_N184 N184 0 0.0
V_N185 N185 0 1.8
V_N186 N186 0 0.0
V_N187 N187 0 1.8
V_N188 N188 0 0.0
V_N189 N189 0 1.8
V_N190 N190 0 0.0
V_N191 N191 0 1.8
V_N192 N192 0 0.0
V_N193 N193 0 1.8
V_N194 N194 0 0.0
V_N195 N195 0 1.8
V_N196 N196 0 0.0
V_N197 N197 0 1.8
V_N198 N198 0 0.0
V_N199 N199 0 1.8
V_N200 N200 0 0.0
V_N201 N201 0 1.8
V_N202 N202 0 0.0
V_N203 N203 0 1.8
V_N204 N204 0 0.0
V_N205 N205 0 1.8
V_N206 N206 0 0.0
V_N207 N207 0 1.8
V_N208 N208 0 0.0
V_N209 N209 0 1.8
V_N210 N210 0 0.0
V_N211 N211 0 1.8
V_N212 N212 0 0.0
V_N213 N213 0 1.8
V_N214 N214 0 0.0
V_N215 N215 0 1.8
V_N216 N216 0 0.0
V_N217 N217 0 1.8
V_N218 N218 0 0.0
V_N219 N219 0 1.8
V_N220 N220 0 0.0
V_N221 N221 0 1.8
V_N222 N222 0 0.0
V_N223 N223 0 1.8
V_N224 N224 0 0.0
V_N225 N225 0 1.8
V_N226 N226 0 0.0
V_N227 N227 0 1.8
V_N228 N228 0 0.0
V_N229 N229 0 1.8
V_N230 N230 0 0.0
V_N231 N231 0 1.8
V_N232 N232 0 0.0
V_N233 N233 0 1.8
V_N234 N234 0 0.0
V_N235 N235 0 1.8
V_N236 N236 0 0.0
V_N237 N237 0 1.8
V_N238 N238 0 0.0
V_N239 N239 0 1.8
V_N240 N240 0 0.0
V_N242 N242 0 1.8
V_N245 N245 0 0.0
V_N248 N248 0 1.8
V_N251 N251 0 0.0
V_N254 N254 0 1.8
V_N257 N257 0 0.0
V_N260 N260 0 1.8
V_N263 N263 0 0.0
V_N267 N267 0 1.8
V_N271 N271 0 0.0
V_N274 N274 0 1.8
V_N277 N277 0 0.0
V_N280 N280 0 1.8
V_N283 N283 0 0.0
V_N286 N286 0 1.8
V_N289 N289 0 0.0
V_N293 N293 0 1.8
V_N296 N296 0 0.0
V_N299 N299 0 1.8
V_N303 N303 0 0.0
V_N307 N307 0 1.8
V_N310 N310 0 0.0
V_N313 N313 0 1.8
V_N316 N316 0 0.0
V_N319 N319 0 1.8
V_N322 N322 0 0.0
V_N325 N325 0 1.8
V_N328 N328 0 0.0
V_N331 N331 0 1.8
V_N334 N334 0 0.0
V_N337 N337 0 1.8
V_N340 N340 0 0.0
V_N343 N343 0 1.8
V_N346 N346 0 0.0
V_N349 N349 0 1.8
V_N352 N352 0 0.0
V_N355 N355 0 1.8
V_N358 N358 0 0.0
V_N361 N361 0 1.8
V_N364 N364 0 0.0
V_N367 N367 0 1.8
V_N382 N382 0 0.0
V_N241_I N241_I 0 1.8

* Yosys Generated Netlist:
* SPICE netlist generated by Yosys 0.62 (git sha1 7326bb7d6641500ecb285c291a54a662cb1e76cf, clang++ 17.0.0 -fPIC -O3)

X0 N382 1 INV_X1
X1 N18 2 INV_X1
X2 N177 3 INV_X1
X3 N176 4 INV_X1
X4 N175 5 INV_X1
X5 N41 6 INV_X1
X6 N286 7 INV_X1
X7 N334 8 INV_X1
X8 N331 9 INV_X1
X9 N328 10 INV_X1
X10 N322 11 INV_X1
X11 N319 12 INV_X1
X12 N316 13 INV_X1
X13 N313 14 INV_X1
X14 N364 15 INV_X1
X15 N358 16 INV_X1
X16 N352 17 INV_X1
X17 N346 18 INV_X1
X18 N343 19 INV_X1
X19 N355 20 INV_X1
X20 N367 21 INV_X1
X21 N5 22 INV_X1
X22 N15 N1111 INV_X1
X23 N163 N1 N1781 AND2_X1
X24 N382 N263 N267 23 NAND3_X1
X25 N38 23 24 NAND2_X1
X26 N12 N9 25 AND2_X1
X27 N12 N9 26 NAND2_X1
X28 2 N213 27 OR2_X1
X29 26 27 28 NAND2_X1
X30 N260 28 29 NAND2_X1
X31 2 N214 30 OR2_X1
X32 26 30 31 NAND2_X1
X33 N257 31 32 AND2_X1
X34 N257 31 33 NOR2_X1
X35 26 N209 2 34 OAI21_X1
X36 N251 34 35 OR2_X1
X37 2 N215 36 OR2_X1
X38 26 36 37 NAND2_X1
X39 N106 37 38 NOR2_X1
X40 N106 37 39 XOR2_X1
X41 2 N216 40 OR2_X1
X42 26 40 41 NAND2_X1
X43 N254 41 42 OR2_X1
X44 N254 41 43 NAND2_X1
X45 42 43 44 AND2_X1
X46 39 44 45 NAND2_X1
X47 35 45 46 NOR2_X1
X48 42 37 N106 47 AOI21_X1
X49 38 46 47 48 NOR3_X1
X50 32 48 49 NOR2_X1
X51 33 49 50 NOR2_X1
X52 50 28 N260 51 OAI21_X1
X53 29 51 52 AND2_X1
X54 N260 28 53 XOR2_X1
X55 32 33 54 NOR2_X1
X56 N251 34 55 NAND2_X1
X57 35 55 56 AND2_X1
X58 44 56 57 AND2_X1
X59 39 57 58 NAND2_X1
X60 58 59 INV_X1
X61 2 N155 60 OR2_X1
X62 26 60 61 NAND2_X1
X63 N296 61 62 NOR2_X1
X64 N296 61 63 XOR2_X1
X65 2 N156 64 OR2_X1
X66 26 64 65 NAND2_X1
X67 N293 65 66 NOR2_X1
X68 N293 65 67 NAND2_X1
X69 N293 65 68 XOR2_X1
X70 63 68 69 NAND2_X1
X71 69 70 INV_X1
X72 26 N157 2 71 OAI21_X1
X73 N289 71 72 NAND2_X1
X74 N135 N158 N18 73 MUX2_X1
X75 7 73 74 NAND2_X1
X76 7 73 75 NOR2_X1
X77 N18 N159 76 AND2_X1
X78 76 N144 2 77 AOI21_X1
X79 N283 77 78 AND2_X1
X80 78 79 INV_X1
X81 N283 77 80 NOR2_X1
X82 N18 N160 81 AND2_X1
X83 81 N138 2 82 AOI21_X1
X84 N280 82 83 AND2_X1
X85 N280 82 84 NOR2_X1
X86 N18 N151 85 AND2_X1
X87 85 N147 2 86 AOI21_X1
X88 N277 86 87 NOR2_X1
X89 84 87 88 NOR2_X1
X90 83 88 89 NOR2_X1
X91 80 89 90 NOR2_X1
X92 78 90 91 NOR2_X1
X93 80 89 79 92 AOI21_X1
X94 75 92 74 93 AOI21_X1
X95 72 93 94 NAND2_X1
X96 94 71 N289 95 OAI21_X1
X97 N289 71 96 XOR2_X1
X98 N286 73 97 XNOR2_X1
X99 78 80 98 NOR2_X1
X100 83 84 99 NOR2_X1
X101 N277 86 100 AND2_X1
X102 87 100 101 NOR2_X1
X103 99 101 102 AND2_X1
X104 98 102 103 AND2_X1
X105 97 103 104 AND2_X1
X106 95 96 104 105 AOI21_X1
X107 105 106 INV_X1
X108 N66 N219 N18 107 MUX2_X1
X109 15 107 108 NAND2_X1
X110 15 107 109 NOR2_X1
X111 N364 107 110 XNOR2_X1
X112 N18 N220 111 AND2_X1
X113 111 N50 2 112 AOI21_X1
X114 N361 112 113 NOR2_X1
X115 N361 112 114 AND2_X1
X116 N361 112 115 NAND2_X1
X117 N32 N221 N18 116 MUX2_X1
X118 N358 116 117 XNOR2_X1
X119 117 118 INV_X1
X120 N35 N222 N18 119 MUX2_X1
X121 20 119 120 NAND2_X1
X122 118 120 121 NOR2_X1
X123 121 116 16 122 AOI21_X1
X124 20 119 123 NOR2_X1
X125 N355 119 124 XNOR2_X1
X126 117 124 125 NAND2_X1
X127 N100 N231 N18 126 MUX2_X1
X128 8 126 127 NAND2_X1
X129 8 126 128 XNOR2_X1
X130 N18 N232 129 AND2_X1
X131 2 N124 130 AND2_X1
X132 129 130 131 NOR2_X1
X133 N331 131 132 NOR2_X1
X134 9 129 130 133 NOR3_X1
X135 N127 N233 N18 134 MUX2_X1
X136 134 135 INV_X1
X137 10 134 136 XNOR2_X1
X138 N18 N234 137 AND2_X1
X139 137 N130 2 138 AOI21_X1
X140 N325 138 139 NOR2_X1
X141 N325 138 140 AND2_X1
X142 139 140 141 NOR2_X1
X143 136 139 140 142 NOR3_X1
X144 N103 N235 N18 143 MUX2_X1
X145 11 143 144 NOR2_X1
X146 144 145 INV_X1
X147 11 143 146 NAND2_X1
X148 N18 N236 147 AND2_X1
X149 2 N23 148 AND2_X1
X150 N23 N236 N18 149 MUX2_X1
X151 12 149 150 AND2_X1
X152 12 149 151 NAND2_X1
X153 N26 N237 N18 152 MUX2_X1
X154 13 152 153 NOR2_X1
X155 13 152 154 NAND2_X1
X156 N18 N238 155 AND2_X1
X157 155 N29 2 156 AOI21_X1
X158 N29 N238 N18 157 MUX2_X1
X159 N313 156 158 NOR2_X1
X160 14 157 159 NAND2_X1
X161 154 159 153 160 OAI21_X1
X162 13 152 161 XNOR2_X1
X163 N313 156 162 NAND2_X1
X164 14 157 163 XNOR2_X1
X165 161 163 164 NOR2_X1
X166 12 149 165 NOR2_X1
X167 N18 6 166 NOR2_X1
X168 2 N41 167 NAND2_X1
X169 N310 167 168 NOR2_X1
X170 160 168 169 NOR2_X1
X171 N310 161 163 167 170 NOR4_X1
X172 160 170 171 OR2_X1
X173 12 147 148 150 160 170 172 OAI33_X1
X174 146 172 144 173 OAI21_X1
X175 21 146 172 144 174 OAI211_X1
X176 2 6 N310 175 AND3_X1
X177 161 163 175 176 NOR3_X1
X178 168 175 177 NOR2_X1
X179 150 160 176 178 OR3_X1
X180 12 149 160 176 179 OAI22_X1
X181 146 151 179 180 NAND3_X1
X182 145 180 181 NAND2_X1
X183 145 174 180 182 NAND3_X1
X184 142 145 174 180 183 AND4_X1
X185 139 134 10 184 AOI21_X1
X186 184 135 N328 185 AOI21_X1
X187 183 185 186 NOR2_X1
X188 9 129 130 132 183 185 187 OAI33_X1
X189 128 187 188 NOR2_X1
X190 188 126 8 189 AOI21_X1
X191 127 128 187 190 OAI21_X1
X192 N47 N223 N18 191 MUX2_X1
X193 191 192 INV_X1
X194 N352 191 193 XNOR2_X1
X195 193 194 INV_X1
X196 N18 N224 195 AND2_X1
X197 195 N121 2 196 AOI21_X1
X198 N349 196 197 NOR2_X1
X199 N349 196 198 NAND2_X1
X200 N349 196 199 XOR2_X1
X201 N94 N225 N18 200 MUX2_X1
X202 200 201 INV_X1
X203 N346 200 202 XNOR2_X1
X204 N97 N226 N18 203 MUX2_X1
X205 19 203 204 AND2_X1
X206 19 203 205 NAND2_X1
X207 19 203 206 NOR2_X1
X208 204 206 207 NOR2_X1
X209 N18 N217 208 AND2_X1
X210 208 N118 2 209 AOI21_X1
X211 N340 209 210 NOR2_X1
X212 N340 209 211 AND2_X1
X213 210 211 212 NOR2_X1
X214 202 207 212 213 AND3_X1
X215 199 213 214 NAND2_X1
X216 194 214 215 NOR2_X1
X217 205 201 N346 216 OAI21_X1
X218 216 200 18 217 OAI21_X1
X219 202 207 210 218 NAND3_X1
X220 217 218 219 NAND2_X1
X221 198 219 197 220 OAI21_X1
X222 220 192 N352 221 AOI21_X1
X223 221 215 190 17 191 222 AOI221_X1
X224 122 125 222 223 OAI21_X1
X225 115 223 113 224 OAI21_X1
X226 108 109 224 225 OAI21_X1
X227 95 225 226 NOR2_X1
X228 105 226 227 NOR2_X1
X229 70 106 225 95 228 OAI211_X1
X230 2 N153 229 OR2_X1
X231 26 229 230 NAND2_X1
X232 N303 230 231 XOR2_X1
X233 2 N154 232 OR2_X1
X234 26 232 233 NAND2_X1
X235 N299 233 234 NOR2_X1
X236 N299 233 235 AND2_X1
X237 234 235 236 NOR2_X1
X238 231 236 237 NAND2_X1
X239 62 63 66 238 AOI21_X1
X240 62 234 66 63 239 AOI211_X1
X241 235 239 N303 230 240 AOI211_X1
X242 240 241 INV_X1
X243 235 238 242 NOR2_X1
X244 241 237 228 N303 230 243 OAI221_X1
X245 56 243 244 NAND2_X1
X246 53 54 59 245 AND3_X1
X247 52 245 246 NOR2_X1
X248 52 243 245 247 AOI21_X1
X249 N382 N267 248 NAND2_X1
X250 N382 N263 N38 249 NAND3_X1
X251 N38 N263 N382 250 AOI21_X1
X252 250 251 INV_X1
X253 249 251 248 252 MUX2_X1
X254 24 247 252 N10101 OAI21_X1
X255 N245 N271 253 OR2_X1
X256 N38 253 1 254 OAI21_X1
X257 N245 N271 255 NAND2_X1
X258 1 N38 256 NOR2_X1
X259 N382 255 257 NAND2_X1
X260 N18 N113 258 NOR2_X1
X261 258 N251 N18 259 AOI21_X1
X262 2 N168 260 OR2_X1
X263 26 260 261 NAND2_X1
X264 N18 N106 262 NAND2_X1
X265 262 N87 N18 263 OAI21_X1
X266 261 263 264 NOR2_X1
X267 26 259 265 NAND2_X1
X268 2 N166 266 OR2_X1
X269 26 266 267 NAND2_X1
X270 N18 N88 268 NOR2_X1
X271 268 N260 N18 269 AOI21_X1
X272 269 270 INV_X1
X273 267 270 271 NAND2_X1
X274 2 N167 272 OR2_X1
X275 26 272 273 NAND2_X1
X276 N18 N257 274 NAND2_X1
X277 274 N112 N18 275 OAI21_X1
X278 26 266 269 276 NAND3_X1
X279 273 275 277 XOR2_X1
X280 271 276 277 278 NAND3_X1
X281 261 263 279 AND2_X1
X282 2 N169 280 OR2_X1
X283 26 280 281 NAND2_X1
X284 N18 N254 282 NAND2_X1
X285 282 N111 N18 283 OAI21_X1
X286 281 283 284 XNOR2_X1
X287 264 279 284 285 NOR3_X1
X288 254 265 285 286 NAND3_X1
X289 N38 257 259 26 287 OAI22_X1
X290 278 286 287 288 NOR3_X1
X291 2 N173 289 OR2_X1
X292 26 289 290 NAND2_X1
X293 N18 N110 291 NOR2_X1
X294 291 N303 N18 292 AOI21_X1
X295 292 293 INV_X1
X296 290 293 294 NAND2_X1
X297 26 289 292 295 NAND3_X1
X298 2 N174 296 OR2_X1
X299 26 296 297 NAND2_X1
X300 N18 N299 298 NAND2_X1
X301 298 N109 N18 299 OAI21_X1
X302 297 299 300 NOR2_X1
X303 297 299 301 XOR2_X1
X304 294 295 301 302 NAND3_X1
X305 25 5 N18 303 AOI21_X1
X306 N18 N86 304 NOR2_X1
X307 304 N296 N18 305 AOI21_X1
X308 303 305 306 NAND2_X1
X309 25 4 N18 307 AOI21_X1
X310 N18 N63 308 NOR2_X1
X311 308 N293 N18 309 AOI21_X1
X312 307 309 310 NAND2_X1
X313 306 310 311 NAND2_X1
X314 303 305 307 309 312 OAI22_X1
X315 302 311 312 313 NOR3_X1
X316 288 313 314 NAND2_X1
X317 25 3 N18 315 AOI21_X1
X318 N18 N64 316 NOR2_X1
X319 316 N289 N18 317 AOI21_X1
X320 315 317 318 NAND2_X1
X321 315 317 319 OR2_X1
X322 N135 N178 N18 320 MUX2_X1
X323 N18 N286 321 NAND2_X1
X324 321 N85 N18 322 OAI21_X1
X325 322 323 INV_X1
X326 320 322 324 XNOR2_X1
X327 318 319 324 325 AND3_X1
X328 N144 N179 N18 326 MUX2_X1
X329 N18 N84 327 NOR2_X1
X330 327 N283 N18 328 AOI21_X1
X331 N138 N180 N18 329 MUX2_X1
X332 N18 N83 330 NOR2_X1
X333 330 N280 N18 331 AOI21_X1
X334 326 328 329 331 332 AOI22_X1
X335 326 328 333 NOR2_X1
X336 329 331 334 NOR2_X1
X337 333 334 335 NOR2_X1
X338 332 335 336 AND2_X1
X339 N147 N171 N18 337 MUX2_X1
X340 N18 N277 338 NAND2_X1
X341 338 N65 N18 339 OAI21_X1
X342 339 340 INV_X1
X343 336 337 340 341 NAND3_X1
X344 341 333 332 342 OAI21_X1
X345 325 342 343 NAND2_X1
X346 320 323 315 317 344 OAI211_X1
X347 337 339 345 XNOR2_X1
X348 N66 N189 N18 346 MUX2_X1
X349 N62 15 N18 347 MUX2_X1
X350 346 347 348 NAND2_X1
X351 N50 N190 N18 349 MUX2_X1
X352 N18 N61 350 NOR2_X1
X353 350 N361 N18 351 AOI21_X1
X354 346 347 352 NOR2_X1
X355 352 351 349 353 AOI21_X1
X356 348 353 351 349 354 OAI211_X1
X357 N32 N191 N18 355 MUX2_X1
X358 N60 16 N18 356 MUX2_X1
X359 N35 N192 N18 357 MUX2_X1
X360 N79 20 N18 358 MUX2_X1
X361 355 356 357 358 359 AOI22_X1
X362 359 360 INV_X1
X363 355 356 361 NOR2_X1
X364 357 358 362 NOR2_X1
X365 354 360 361 362 363 OR4_X1
X366 N47 N193 N18 364 MUX2_X1
X367 N80 17 N18 365 MUX2_X1
X368 N121 N194 N18 366 MUX2_X1
X369 N18 N81 367 NOR2_X1
X370 367 N349 N18 368 AOI21_X1
X371 366 368 369 AND2_X1
X372 364 365 366 368 370 OAI22_X1
X373 369 370 364 365 371 AOI211_X1
X374 N118 N187 N18 372 MUX2_X1
X375 N18 N340 373 NAND2_X1
X376 373 N77 N18 374 OAI21_X1
X377 374 375 INV_X1
X378 372 374 376 XNOR2_X1
X379 N94 N195 N18 377 MUX2_X1
X380 N59 18 N18 378 MUX2_X1
X381 377 378 379 NOR2_X1
X382 N97 N196 N18 380 MUX2_X1
X383 N78 19 N18 381 MUX2_X1
X384 377 378 382 NAND2_X1
X385 382 381 380 383 OAI21_X1
X386 379 383 381 380 384 AOI211_X1
X387 371 376 384 385 NAND3_X1
X388 N100 N200 N18 386 MUX2_X1
X389 N56 8 N18 387 MUX2_X1
X390 N124 N201 N18 388 MUX2_X1
X391 N55 9 N18 389 MUX2_X1
X392 386 387 388 389 390 AOI22_X1
X393 390 389 388 386 387 391 OAI221_X1
X394 N130 N203 N18 392 MUX2_X1
X395 N18 N53 393 NOR2_X1
X396 393 N325 N18 394 AOI21_X1
X397 392 394 395 NAND2_X1
X398 N127 N202 N18 396 MUX2_X1
X399 N18 N54 397 NOR2_X1
X400 397 N328 N18 398 AOI21_X1
X401 396 398 399 NAND2_X1
X402 395 399 400 NAND2_X1
X403 392 394 396 398 401 OAI22_X1
X404 391 400 401 402 OR3_X1
X405 402 403 INV_X1
X406 N103 N204 N18 404 MUX2_X1
X407 N73 11 N18 405 MUX2_X1
X408 404 405 406 NAND2_X1
X409 N23 N205 N18 407 MUX2_X1
X410 N75 12 N18 408 MUX2_X1
X411 404 405 409 NOR2_X1
X412 409 408 407 410 AOI21_X1
X413 406 410 408 407 411 OAI211_X1
X414 N70 166 412 NAND2_X1
X415 N26 N206 N18 413 MUX2_X1
X416 N76 13 N18 414 MUX2_X1
X417 413 414 415 NOR2_X1
X418 N29 N207 N18 416 MUX2_X1
X419 N74 14 N18 417 MUX2_X1
X420 413 414 418 NAND2_X1
X421 418 417 416 419 OAI21_X1
X422 415 419 417 416 420 AOI211_X1
X423 N70 166 420 421 NAND3_X1
X424 416 417 413 414 422 OAI211_X1
X425 418 421 422 423 AND3_X1
X426 407 408 404 405 424 OAI211_X1
X427 406 424 423 411 425 OAI211_X1
X428 400 398 396 426 OAI21_X1
X429 388 389 386 387 427 OAI211_X1
X430 427 426 391 428 OAI21_X1
X431 428 425 403 386 387 429 AOI221_X1
X432 385 429 430 OR2_X1
X433 372 375 384 431 NAND3_X1
X434 380 381 377 378 432 OAI211_X1
X435 382 431 432 433 NAND3_X1
X436 366 368 364 365 434 OAI211_X1
X437 434 435 INV_X1
X438 435 433 371 364 365 436 AOI221_X1
X439 363 430 436 437 AOI21_X1
X440 N18 N70 438 NOR2_X1
X441 411 438 6 439 AOI21_X1
X442 N89 412 420 439 440 NAND4_X1
X443 354 359 361 441 NOR3_X1
X444 349 351 346 347 442 OAI211_X1
X445 348 442 443 NAND2_X1
X446 363 385 402 440 444 NOR4_X1
X447 437 441 443 444 N10704 OR4_X1
X448 325 336 345 N10704 445 NAND4_X1
X449 318 343 344 445 446 AND4_X1
X450 281 283 261 263 447 AOI211_X1
X451 264 447 448 NOR2_X1
X452 26 259 285 449 NAND3_X1
X453 278 448 449 450 AOI21_X1
X454 276 275 273 451 OAI21_X1
X455 450 451 271 452 AOI21_X1
X456 255 256 452 254 453 AOI22_X1
X457 311 305 303 454 OAI21_X1
X458 294 300 455 NAND2_X1
X459 295 455 454 302 456 OAI211_X1
X460 453 456 288 457 AOI21_X1
X461 457 446 314 N10102 OAI21_X1
X462 128 187 N10350 XOR2_X1
X463 132 133 458 NOR2_X1
X464 186 458 N10351 XNOR2_X1
X465 140 182 459 NOR2_X1
X466 139 459 460 OR2_X1
X467 136 460 N10352 XNOR2_X1
X468 141 182 N10353 XNOR2_X1
X469 228 238 461 NAND2_X1
X470 234 236 461 462 AOI21_X1
X471 231 462 N10760 XNOR2_X1
X472 236 461 N10761 XOR2_X1
X473 66 67 227 463 AOI21_X1
X474 63 463 N10762 XNOR2_X1
X475 68 227 N10763 XOR2_X1
X476 248 250 464 XNOR2_X1
X477 N267 248 249 465 MUX2_X1
X478 247 465 466 NAND2_X1
X479 466 464 247 N10837 OAI21_X1
X480 249 251 467 NAND2_X1
X481 247 467 N10839 XNOR2_X1
X482 110 224 N10905 XNOR2_X1
X483 113 114 468 NOR2_X1
X484 223 468 N10906 XOR2_X1
X485 120 123 222 469 OAI21_X1
X486 118 469 N10907 XNOR2_X1
X487 124 222 N10908 XNOR2_X1
X488 96 99 470 XNOR2_X1
X489 97 98 471 XOR2_X1
X490 470 471 472 XNOR2_X1
X491 90 89 79 473 AOI21_X1
X492 87 473 474 XNOR2_X1
X493 93 474 475 XNOR2_X1
X494 101 475 476 NOR2_X1
X495 101 475 477 XNOR2_X1
X496 93 104 478 OR2_X1
X497 91 103 479 NOR2_X1
X498 83 84 100 480 MUX2_X1
X499 479 480 481 XOR2_X1
X500 478 481 482 XNOR2_X1
X501 476 482 101 483 AOI21_X1
X502 477 483 225 484 MUX2_X1
X503 472 484 485 XNOR2_X1
X504 63 66 486 XNOR2_X1
X505 231 236 487 XOR2_X1
X506 486 487 488 XNOR2_X1
X507 239 242 489 NOR2_X1
X508 235 489 69 490 MUX2_X1
X509 488 490 491 XNOR2_X1
X510 236 489 492 NOR2_X1
X511 63 231 493 XNOR2_X1
X512 67 493 494 XNOR2_X1
X513 492 494 495 XNOR2_X1
X514 495 491 95 496 MUX2_X1
X515 491 495 105 497 MUX2_X1
X516 496 497 225 498 MUX2_X1
X517 485 498 N11333 XNOR2_X1
X518 39 44 499 XNOR2_X1
X519 53 54 500 XOR2_X1
X520 499 500 501 XNOR2_X1
X521 464 465 52 502 MUX2_X1
X522 465 464 246 503 MUX2_X1
X523 502 503 243 504 MUX2_X1
X524 501 504 505 XNOR2_X1
X525 35 42 506 NAND2_X1
X526 43 42 35 507 MUX2_X1
X527 48 507 508 XOR2_X1
X528 50 508 509 XNOR2_X1
X529 56 509 510 XOR2_X1
X530 48 58 511 NAND2_X1
X531 33 32 511 512 MUX2_X1
X532 42 43 55 513 MUX2_X1
X533 512 513 514 XNOR2_X1
X534 56 514 515 NAND2_X1
X535 515 509 56 516 OAI21_X1
X536 510 516 243 517 MUX2_X1
X537 505 517 N11334 XNOR2_X1
X538 217 219 210 518 MUX2_X1
X539 204 210 519 NOR2_X1
X540 206 519 520 NOR2_X1
X541 518 520 521 XNOR2_X1
X542 220 521 522 XNOR2_X1
X543 214 220 523 NAND2_X1
X544 213 219 524 NOR2_X1
X545 206 204 211 525 MUX2_X1
X546 524 525 526 XNOR2_X1
X547 523 526 527 XNOR2_X1
X548 522 527 212 528 MUX2_X1
X549 212 522 529 XNOR2_X1
X550 528 529 189 530 MUX2_X1
X551 202 207 531 XNOR2_X1
X552 194 199 532 XNOR2_X1
X553 531 532 533 XNOR2_X1
X554 530 533 534 XNOR2_X1
X555 114 113 122 535 MUX2_X1
X556 468 535 536 NOR2_X1
X557 110 117 537 XOR2_X1
X558 123 537 538 XNOR2_X1
X559 536 538 539 XNOR2_X1
X560 117 120 540 XOR2_X1
X561 114 535 125 541 MUX2_X1
X562 110 468 542 XOR2_X1
X563 540 542 543 XNOR2_X1
X564 541 543 544 XNOR2_X1
X565 544 539 222 545 MUX2_X1
X566 534 545 N11340 XNOR2_X1
X567 150 165 546 NOR2_X1
X568 145 146 547 AND2_X1
X569 546 547 548 XNOR2_X1
X570 158 162 168 549 AOI21_X1
X571 169 171 168 550 AOI21_X1
X572 549 550 551 XOR2_X1
X573 172 551 552 XNOR2_X1
X574 21 168 175 553 NOR3_X1
X575 N367 177 554 NOR2_X1
X576 553 554 N10025 NOR2_X1
X577 178 179 555 AND2_X1
X578 162 549 175 556 MUX2_X1
X579 555 556 557 XNOR2_X1
X580 554 N10025 552 558 MUX2_X1
X581 558 557 553 559 AOI21_X1
X582 548 559 560 XNOR2_X1
X583 161 163 561 XOR2_X1
X584 132 133 185 562 MUX2_X1
X585 458 562 563 NOR2_X1
X586 128 136 564 XNOR2_X1
X587 140 564 565 XNOR2_X1
X588 563 565 566 XNOR2_X1
X589 139 458 567 XNOR2_X1
X590 564 567 568 XNOR2_X1
X591 562 133 142 569 MUX2_X1
X592 568 569 570 XOR2_X1
X593 21 173 570 571 NAND3_X1
X594 21 181 566 572 AOI21_X1
X595 572 570 181 573 OAI21_X1
X596 571 573 174 566 574 OAI211_X1
X597 561 574 575 XNOR2_X1
X598 560 575 N11342 XNOR2_X1
X599 N57 N5 N881 OR2_X1
X600 N242 22 N1110 NAND2_X1
X601 168 553 576 NOR2_X1
X602 171 553 164 577 AOI21_X1
X603 165 577 151 578 AOI21_X1
X604 547 578 N10109 XOR2_X1
X605 546 577 N10110 XNOR2_X1
X606 162 168 553 579 OAI21_X1
X607 159 579 580 NAND2_X1
X608 161 580 N10111 XNOR2_X1
X609 163 576 N10112 XOR2_X1
X610 101 225 N10632 XOR2_X1
X611 56 243 N10641 XOR2_X1
X612 478 225 93 581 OAI21_X1
X613 96 581 N10711 XNOR2_X1
X614 91 103 225 582 AOI21_X1
X615 97 582 N10712 XNOR2_X1
X616 89 102 225 583 AOI21_X1
X617 98 583 N10713 XNOR2_X1
X618 87 101 225 584 AOI21_X1
X619 99 584 N10714 XNOR2_X1
X620 54 59 243 585 NAND3_X1
X621 50 585 586 NAND2_X1
X622 53 586 N10715 XOR2_X1
X623 48 244 45 587 OAI21_X1
X624 54 587 N10716 XOR2_X1
X625 57 243 506 43 588 AOI22_X1
X626 39 588 N10717 XNOR2_X1
X627 35 244 589 NAND2_X1
X628 44 589 N10718 XOR2_X1
X629 190 212 N10827 XOR2_X1
X630 220 214 189 590 OAI21_X1
X631 194 590 N10868 XNOR2_X1
X632 219 213 190 591 AOI21_X1
X633 199 591 N10869 XNOR2_X1
X634 210 212 190 592 AOI21_X1
X635 205 206 592 593 OAI21_X1
X636 202 593 N10870 XOR2_X1
X637 207 592 N10871 XNOR2_X1
X638 N150 N184 N228 N240 N882 NAND4_X1
X639 N210 N152 N218 N230 N883 NAND4_X1
X640 N183 N182 N185 N186 N884 NAND4_X1
X641 N162 N172 N188 N199 N885 NAND4_X1
X642 N134 N133 22 N1113 NAND3_X1
X643 152 157 594 XNOR2_X1
X644 143 149 595 XNOR2_X1
X645 594 595 596 XNOR2_X1
X646 135 138 597 XNOR2_X1
X647 126 131 598 XOR2_X1
X648 597 598 599 XNOR2_X1
X649 N44 N239 N18 600 MUX2_X1
X650 166 N229 N18 601 AOI21_X1
X651 600 601 602 XNOR2_X1
X652 37 40 41 36 603 OAI22_X1
X653 N212 N211 604 XNOR2_X1
X654 N18 26 604 N209 605 OAI211_X1
X655 605 604 N209 606 AOI21_X1
X656 28 30 31 27 607 OAI22_X1
X657 603 607 608 XOR2_X1
X658 606 608 609 XNOR2_X1
X659 77 82 610 XOR2_X1
X660 N141 N161 N18 611 MUX2_X1
X661 230 232 233 229 612 OAI22_X1
X662 610 612 613 XNOR2_X1
X663 86 611 614 XOR2_X1
X664 613 614 615 XNOR2_X1
X665 61 64 65 60 616 OAI22_X1
X666 71 73 617 XOR2_X1
X667 616 617 618 XNOR2_X1
X668 N115 N227 N18 619 MUX2_X1
X669 209 619 620 XOR2_X1
X670 200 203 621 XOR2_X1
X671 192 196 622 XNOR2_X1
X672 620 622 623 XNOR2_X1
X673 621 623 624 XNOR2_X1
X674 116 119 625 XNOR2_X1
X675 107 112 626 XOR2_X1
X676 625 626 627 XNOR2_X1
X677 615 618 628 XNOR2_X1
X678 596 602 629 XNOR2_X1
X679 599 629 630 XNOR2_X1
X680 624 627 631 XNOR2_X1
X681 609 628 630 631 N10574 NAND4_X1
X682 414 417 632 XOR2_X1
X683 387 394 633 XNOR2_X1
X684 632 633 634 XNOR2_X1
X685 438 N310 N18 635 AOI21_X1
X686 405 635 636 XNOR2_X1
X687 N18 N69 637 NOR2_X1
X688 637 N307 N18 638 AOI21_X1
X689 408 638 639 XNOR2_X1
X690 636 639 640 XNOR2_X1
X691 389 398 641 XOR2_X1
X692 640 641 642 XNOR2_X1
X693 305 309 643 XNOR2_X1
X694 292 299 644 XNOR2_X1
X695 643 644 645 XNOR2_X1
X696 328 331 646 XOR2_X1
X697 317 322 647 XOR2_X1
X698 646 647 648 XNOR2_X1
X699 N18 N274 649 NAND2_X1
X700 649 N82 N18 650 OAI21_X1
X701 339 650 651 XNOR2_X1
X702 648 651 652 XNOR2_X1
X703 634 642 645 652 653 OAI22_X1
X704 653 642 634 654 AOI21_X1
X705 263 283 655 XOR2_X1
X706 N18 N248 656 NAND2_X1
X707 656 N114 N18 657 OAI21_X1
X708 259 657 658 XNOR2_X1
X709 655 658 659 XNOR2_X1
X710 N263 N267 660 XOR2_X1
X711 N18 N245 N271 661 AOI21_X1
X712 N18 660 661 253 662 AOI22_X1
X713 269 275 663 XNOR2_X1
X714 662 663 664 XNOR2_X1
X715 659 664 665 XNOR2_X1
X716 351 358 666 XNOR2_X1
X717 347 356 667 XNOR2_X1
X718 666 667 668 XNOR2_X1
X719 368 378 669 XNOR2_X1
X720 365 381 670 XNOR2_X1
X721 669 670 671 XNOR2_X1
X722 N18 N337 672 NAND2_X1
X723 672 N58 N18 673 OAI21_X1
X724 374 673 674 XNOR2_X1
X725 671 674 675 XNOR2_X1
X726 665 668 675 676 OAI21_X1
X727 676 675 668 645 652 677 AOI221_X1
X728 654 677 N10575 NAND2_X1
X729 404 407 678 XNOR2_X1
X730 413 416 679 XOR2_X1
X731 N44 N208 N18 680 MUX2_X1
X732 166 N198 N18 681 AOI21_X1
X733 680 681 682 XOR2_X1
X734 679 682 683 XNOR2_X1
X735 678 683 684 XNOR2_X1
X736 388 396 685 XNOR2_X1
X737 386 392 686 XNOR2_X1
X738 685 686 687 XNOR2_X1
X739 N115 N197 N18 688 MUX2_X1
X740 372 688 689 XNOR2_X1
X741 364 366 690 XNOR2_X1
X742 689 690 691 XNOR2_X1
X743 349 357 692 XOR2_X1
X744 346 355 693 XNOR2_X1
X745 692 693 694 XNOR2_X1
X746 377 380 695 XNOR2_X1
X747 N18 5 307 696 NAND3_X1
X748 N18 4 303 697 NAND3_X1
X749 696 697 698 NAND2_X1
X750 326 329 699 XOR2_X1
X751 698 699 700 XNOR2_X1
X752 315 320 701 XNOR2_X1
X753 N141 N181 N18 702 MUX2_X1
X754 290 296 297 289 703 OAI22_X1
X755 701 703 704 XNOR2_X1
X756 337 702 705 XNOR2_X1
X757 704 705 706 XNOR2_X1
X758 700 706 707 XNOR2_X1
X759 261 280 281 260 708 OAI22_X1
X760 N165 N164 709 XNOR2_X1
X761 N18 26 709 N170 710 OAI211_X1
X762 710 709 N170 711 AOI21_X1
X763 267 272 273 266 712 OAI22_X1
X764 708 712 713 XOR2_X1
X765 711 713 714 XNOR2_X1
X766 691 695 715 XNOR2_X1
X767 694 715 716 XNOR2_X1
X768 684 687 717 XNOR2_X1
X769 707 714 716 717 N10576 NAND4_X1
X770 N882 N883 N884 N885 718 OR4_X1
X771 N10574 N10575 N10576 718 N10729 OR4_X1
X772 24 247 252 N10104 OAI21_X1
X773 457 446 314 N10628 OAI21_X1
X774 24 247 252 N10706 OAI21_X1
X775 24 247 252 N10759 OAI21_X1
V0 N18 N676 DC 0
V1 N286 N509 DC 0
V2 N283 N507 DC 0
V3 N1111 N582 DC 0
V4 N18 N682 DC 0
V5 N280 N505 DC 0
V6 N322 N545 DC 0
V7 N1 N590 DC 0
V8 N319 N543 DC 0
V9 N274 N501 DC 0
V10 N18 N689 DC 0
V11 N316 N541 DC 0
V12 N313 N539 DC 0
V13 N310 N537 DC 0
V14 N277 N707 DC 0
V15 N18 N2390 DC 0
V16 N307 N535 DC 0
V17 N267 N492 DC 0
V18 N263 N489 DC 0
V19 N260 N486 DC 0
V20 N18 N2384 DC 0
V21 N257 N484 DC 0
V22 N254 N482 DC 0
V23 N367 N750 DC 0
V24 N248 N478 DC 0
V25 N1111 N1114 DC 0
V26 N18 N2368 DC 0
V27 N340 N813 DC 0
V28 N38 N1431 DC 0
V29 N38 N1428 DC 0
V30 N325 N547 DC 0
V31 Vdd N2347 DC 0
V32 N328 N549 DC 0
V33 N331 N551 DC 0
V34 N334 N553 DC 0
V35 N10839 N10781 DC 0
V36 N337 N556 DC 0
V37 N18 N1125 DC 0
V38 N10837 N10778 DC 0
V39 N1110 N1112 DC 0
V40 N18 N2331 DC 0
V41 N38 N614 DC 0
V42 N18 N2315 DC 0
V43 N18 N2309 DC 0
V44 N18 N2293 DC 0
V45 N18 N2287 DC 0
V46 N303 N519 DC 0
V47 N1 N1490 DC 0
V48 N1113 N1489 DC 0
V49 N106 N2275 DC 0
V50 N241_I N241_O DC 0
V51 N106 N2267 DC 0
V52 N367 N871 DC 0
V53 N10102 N10103 DC 0
V54 N18 N2412 DC 0
V55 N18 N2406 DC 0
V56 N38 N1311 DC 0
V57 N38 N1308 DC 0
V58 N38 N1299 DC 0
V59 N343 N559 DC 0
V60 Vdd N2240 DC 0
V61 N299 N517 DC 0
V62 N1 N889 DC 0
V63 N15 N625 DC 0
V64 N346 N561 DC 0
V65 N349 N563 DC 0
V66 N352 N565 DC 0
V67 N38 N1287 DC 0
V68 N1 N1116 DC 0
V69 N355 N567 DC 0
V70 N18 N1277 DC 0
V71 N296 N515 DC 0
V72 N38 N636 DC 0
V73 N18 N1270 DC 0
V74 N1 N388 DC 0
V75 N251 N643 DC 0
V76 N260 N1828 DC 0
V77 N257 N1829 DC 0
V78 N1 N387 DC 0
V79 N254 N1830 DC 0
V80 N251 N1833 DC 0
V81 N260 N1840 DC 0
V82 N257 N1841 DC 0
V83 N254 N1842 DC 0
V84 N106 N945 DC 0
V85 N358 N569 DC 0
V86 N293 N513 DC 0
V87 N361 N571 DC 0
V88 N106 N657 DC 0
V89 N251 N1843 DC 0
V90 N18 N1256 DC 0
V91 N10837 N10838 DC 0
V92 N10839 N10840 DC 0
V93 N303 N1867 DC 0
V94 N299 N1868 DC 0
V95 N296 N1869 DC 0
V96 N289 N1870 DC 0
V97 N286 N1871 DC 0
V98 N283 N1872 DC 0
V99 N280 N1873 DC 0
V100 N293 N1874 DC 0
V101 N277 N1875 DC 0
V102 N303 N1876 DC 0
V103 N299 N1877 DC 0
V104 N296 N1878 DC 0
V105 N293 N1879 DC 0
V106 N289 N1880 DC 0
V107 N286 N1881 DC 0
V108 N283 N1882 DC 0
V109 N280 N1883 DC 0
V110 N277 N1884 DC 0
V111 N18 N1913 DC 0
V112 N334 N1931 DC 0
V113 N331 N1932 DC 0
V114 N328 N1933 DC 0
V115 N325 N1934 DC 0
V116 N322 N1935 DC 0
V117 N364 N573 DC 0
V118 N319 N1936 DC 0
V119 N316 N1937 DC 0
V120 N313 N1938 DC 0
V121 N334 N1939 DC 0
V122 N289 N511 DC 0