* Nangila SPICE Auto-Synthesized Netlist
.SUBCKT INV_X1 A Z
M1 Z A 0 0 NMOS W=0.2u L=0.05u
M2 Z A 1 1 PMOS W=0.4u L=0.05u
.ENDS

.SUBCKT NAND2_X1 A1 A2 Z
M1 Z A1 1 1 PMOS W=0.4u L=0.05u
M2 Z A2 1 1 PMOS W=0.4u L=0.05u
M3 Z A1 int 0 NMOS W=0.2u L=0.05u
M4 int A2 0 0 NMOS W=0.2u L=0.05u
.ENDS

.SUBCKT AND2_X1 A1 A2 Z
X1 A1 A2 Z_bar NAND2_X1
X2 Z_bar Z INV_X1
.ENDS

.SUBCKT NOR2_X1 A1 A2 Z
M1 int1 A1 1 1 PMOS W=0.4u L=0.05u
M2 Z A2 int1 1 PMOS W=0.4u L=0.05u
M3 Z A1 0 0 NMOS W=0.2u L=0.05u
M4 Z A2 0 0 NMOS W=0.2u L=0.05u
.ENDS

.SUBCKT OR2_X1 A1 A2 Z
X1 A1 A2 Z_bar NOR2_X1
X2 Z_bar Z INV_X1
.ENDS

.SUBCKT XOR2_X1 A1 A2 Z
X1 A1 A2 int1 AND2_X1
X2 A1 A2 int2 NOR2_X1
X3 int1 int2 int3 NOR2_X1
X4 int3 Z INV_X1
.ENDS

.SUBCKT XNOR2_X1 A B Z
X1 A B Z_int XOR2_X1
X2 Z_int Z INV_X1
.ENDS

.SUBCKT BUF_X1 A Z
X1 A Z_bar INV_X1
X2 Z_bar Z INV_X1
.ENDS

.SUBCKT OAI21_X1 A B C Z
X1 A B C Z_bar AOI21_X1
X2 Z_bar Z INV_X1
.ENDS

.SUBCKT AOI21_X1 A B C Z
M1 Z A int1 1 PMOS W=0.4u L=0.05u
M2 int1 B 1 1 PMOS W=0.4u L=0.05u
M3 Z C 1 1 PMOS W=0.4u L=0.05u
M4 Z A 0 0 NMOS W=0.2u L=0.05u
M5 Z B 0 0 NMOS W=0.2u L=0.05u
M6 Z C 0 0 NMOS W=0.2u L=0.05u
.ENDS

.SUBCKT NAND3_X1 A1 A2 A3 Z
X1 A1 A2 int1 AND2_X1
X2 int1 A3 Z NAND2_X1
.ENDS

.SUBCKT AND3_X1 A1 A2 A3 Z
X1 A1 A2 A3 Z_bar NAND3_X1
X2 Z_bar Z INV_X1
.ENDS

.SUBCKT NOR3_X1 A1 A2 A3 Z
X1 A1 A2 int1 OR2_X1
X2 int1 A3 Z NOR2_X1
.ENDS

.SUBCKT OR3_X1 A1 A2 A3 Z
X1 A1 A2 A3 Z_bar NOR3_X1
X2 Z_bar Z INV_X1
.ENDS

.SUBCKT NAND4_X1 A1 A2 A3 A4 Z
X1 A1 A2 A3 int1 AND3_X1
X2 int1 A4 Z NAND2_X1
.ENDS

.SUBCKT AND4_X1 A1 A2 A3 A4 Z
X1 A1 A2 A3 A4 Z_bar NAND4_X1
X2 Z_bar Z INV_X1
.ENDS

.SUBCKT NOR4_X1 A1 A2 A3 A4 Z
X1 A1 A2 A3 int1 OR3_X1
X2 int1 A4 Z NOR2_X1
.ENDS

.SUBCKT OR4_X1 A1 A2 A3 A4 Z
X1 A1 A2 A3 A4 Z_bar NOR4_X1
X2 Z_bar Z INV_X1
.ENDS

.SUBCKT AOI22_X1 A B C D Z
X1 A B int1 AND2_X1
X2 C D int2 AND2_X1
X3 int1 int2 Z NOR2_X1
.ENDS

.SUBCKT OAI22_X1 A B C D Z
X1 A B int1 OR2_X1
X2 C D int2 OR2_X1
X3 int1 int2 Z NAND2_X1
.ENDS

.SUBCKT AOI211_X1 A B C D Z
X1 A B int1 AND2_X1
X2 int1 C D Z NOR3_X1
.ENDS

.SUBCKT OAI211_X1 A B C D Z
X1 A B int1 OR2_X1
X2 int1 C D Z NAND3_X1
.ENDS

.SUBCKT OAI33_X1 A B C D E F Z
X1 A B C int1 OR3_X1
X2 D E F int2 OR3_X1
X3 int1 int2 Z NAND2_X1
.ENDS

.SUBCKT AOI33_X1 A B C D E F Z
X1 A B C int1 AND3_X1
X2 D E F int2 AND3_X1
X3 int1 int2 Z NOR2_X1
.ENDS

.SUBCKT MUX2_X1 A B S Z
X1 S S_bar INV_X1
X2 A S_bar int1 AND2_X1
X3 B S int2 AND2_X1
X4 int1 int2 Z OR2_X1
.ENDS

.SUBCKT DFF_X1 D C Q QN
X1 D Q_int INV_X1
X2 Q_int Q INV_X1
X3 Q_int QN INV_X1
.ENDS

.SUBCKT DFFR_X1 D C RN Q QN
X1 D Q_int INV_X1
X2 Q_int Q INV_X1
X3 Q_int QN INV_X1
.ENDS

.SUBCKT DFFS_X1 C D Q QN SN
X1 D Q_int INV_X1
X2 Q_int Q INV_X1
X3 Q_int QN INV_X1
.ENDS

.SUBCKT DFFRS_X1 C D Q QN RN SN
X1 D Q_int INV_X1
X2 Q_int Q INV_X1
X3 Q_int QN INV_X1
.ENDS

* Provide VDD power source explicitly
Vvdd 1 0 1.8

* Auto-extracted Inputs:
V_CK CK 0 1.8
V_D D 0 0.0
V_CK CK 0 1.8
V_g43 g43 0 0.0
V_g49 g49 0 1.8
V_g633 g633 0 0.0
V_g634 g634 0 1.8
V_g635 g635 0 0.0
V_g645 g645 0 1.8
V_g647 g647 0 0.0
V_g648 g648 0 1.8
V_g690 g690 0 0.0
V_g694 g694 0 1.8
V_g698 g698 0 0.0
V_g702 g702 0 1.8
V_g722 g722 0 0.0
V_g723 g723 0 1.8
V_g751 g751 0 0.0
V_g752 g752 0 1.8
V_g753 g753 0 0.0
V_g754 g754 0 1.8
V_g755 g755 0 0.0
V_g756 g756 0 1.8
V_g757 g757 0 0.0
V_g781 g781 0 1.8
V_g941 g941 0 0.0
V_g962 g962 0 1.8
V_g1000 g1000 0 0.0
V_g1008 g1008 0 1.8
V_g1016 g1016 0 0.0
V_g1080 g1080 0 1.8
V_g1234 g1234 0 0.0
V_g1553 g1553 0 1.8
V_g1554 g1554 0 0.0
V_g786 g786 0 1.8
V_g1206 g1206 0 0.0
V_g929 g929 0 1.8
V_g955 g955 0 0.0
V_g795 g795 0 1.8
V_g1194 g1194 0 0.0
V_g1198 g1198 0 1.8
V_g1202 g1202 0 0.0
V_g24 g24 0 1.8
V_g1203 g1203 0 0.0
V_g1196 g1196 0 1.8
V_g29 g29 0 0.0
V_g22 g22 0 1.8
V_g28 g28 0 0.0
V_g10 g10 0 1.8
V_g23 g23 0 0.0
V_g37 g37 0 1.8
V_g26 g26 0 0.0
V_g1 g1 0 1.8
V_g27 g27 0 0.0
V_g42 g42 0 1.8
V_g11 g11 0 0.0
V_g32 g32 0 1.8
V_g41 g41 0 0.0
V_g31 g31 0 1.8
V_g45 g45 0 0.0
V_g9 g9 0 1.8
V_g44 g44 0 0.0
V_g21 g21 0 1.8
V_g30 g30 0 0.0
V_g25 g25 0 1.8

* Yosys Generated Netlist:
* SPICE netlist generated by Yosys 0.62 (git sha1 7326bb7d6641500ecb285c291a54a662cb1e76cf, clang++ 17.0.0 -fPIC -O3)

.SUBCKT dff CK Q D
X0 CK D Q 1 DFF_X1
.ENDS dff

X0 g1106 1 INV_X1
X1 g1307 2 INV_X1
X2 g55 3 INV_X1
X3 g1251 4 INV_X1
X4 g1329 5 INV_X1
X5 g1247 6 INV_X1
X6 g2790 7 INV_X1
X7 g222 8 INV_X1
X8 g1 9 INV_X1
X9 g2959 10 INV_X1
X10 g1987 11 INV_X1
X11 g43 g6850 INV_X1
X12 g3086 12 INV_X1
X13 g1034 g1789 INV_X1
X14 g130 13 INV_X1
X15 g1084 14 INV_X1
X16 g1077 15 INV_X1
X17 I6711 g3832 INV_X1
X18 g3771 16 INV_X1
X19 g1158 g4652 INV_X1
X20 g45 17 INV_X1
X21 g2787 18 INV_X1
X22 g118 19 INV_X1
X23 g44 20 INV_X1
X24 g1323 21 INV_X1
X25 g300 22 INV_X1
X26 I6900 23 INV_X1
X27 g154 24 INV_X1
X28 g955 g3857 INV_X1
X29 I6930 25 INV_X1
X30 g429 26 INV_X1
X31 g2 27 INV_X1
X32 g1319 28 INV_X1
X33 g1477 29 INV_X1
X34 g3787 30 INV_X1
X35 I6911 31 INV_X1
X36 g815 g7760 INV_X1
X37 g3285 32 INV_X1
X38 g2706 33 INV_X1
X39 g4546 34 INV_X1
X40 g929 g3856 INV_X1
X41 g2106 35 INV_X1
X42 g1326 36 INV_X1
X43 g2829 37 INV_X1
X44 g1231 38 INV_X1
X45 g1097 39 INV_X1
X46 g1443 40 INV_X1
X47 g1029 41 INV_X1
X48 g4526 42 INV_X1
X49 g576 43 INV_X1
X50 I6949 44 INV_X1
X51 g1424 45 INV_X1
X52 g1686 46 INV_X1
X53 g1073 47 INV_X1
X54 g1225 48 INV_X1
X55 g1207 49 INV_X1
X56 g1211 50 INV_X1
X57 g1342 51 INV_X1
X58 g1198 52 INV_X1
X59 g1206 53 INV_X1
X60 I7211 g6223 INV_X1
X61 g2743 54 INV_X1
X62 g1360 55 INV_X1
X63 g3124 56 INV_X1
X64 g1142 57 INV_X1
X65 g1194 58 INV_X1
X66 g1202 59 INV_X1
X67 g1450 60 INV_X1
X68 g875 61 INV_X1
X69 g1416 62 INV_X1
X70 g225 63 INV_X1
X71 g180 64 INV_X1
X72 g1432 g6675 INV_X1
X73 g432 65 INV_X1
X74 g183 66 INV_X1
X75 g940 67 INV_X1
X76 g371 68 INV_X1
X77 g1397 69 INV_X1
X78 g452 70 INV_X1
X79 g13 71 INV_X1
X80 g3076 g6895 INV_X1
X81 g795 g3854 INV_X1
X82 g1392 72 INV_X1
X83 g1400 73 INV_X1
X84 g1252 g4666 INV_X1
X85 g984 74 INV_X1
X86 g290 75 INV_X1
X87 g1253 76 INV_X1
X88 g533 77 INV_X1
X89 g1394 78 INV_X1
X90 g998 79 INV_X1
X91 I6974 g3858 INV_X1
X92 g1333 I7262 80 AND2_X1
X93 g1336 80 81 AND2_X1
X94 g1339 81 82 AND2_X1
X95 g1342 82 83 AND2_X1
X96 g1247 g1345 83 84 OAI21_X1
X97 84 83 g1345 g7528 AOI21_X1
X98 g5988 g5971 85 XNOR2_X1
X99 g5 g5956 86 XNOR2_X1
X100 85 86 87 XNOR2_X1
X101 g47 20 g45 88 OAI21_X1
X102 g48 g3 89 XOR2_X1
X103 88 89 90 XNOR2_X1
X104 g4 g2 91 XNOR2_X1
X105 90 91 92 XNOR2_X1
X106 87 92 93 XNOR2_X1
X107 93 g7480 INV_X1
X108 20 g7480 94 NAND2_X1
X109 I6930 I6911 95 OR2_X1
X110 23 95 96 NOR2_X1
X111 11 23 95 97 NOR3_X1
X112 g45 g41 g42 98 OR3_X1
X113 g55 20 98 g7367 NOR3_X1
X114 I6956 g2149 I6946 99 NOR3_X1
X115 g2106 99 100 AND2_X1
X116 g7367 100 101 AND2_X1
X117 97 g7367 100 102 AND3_X1
X118 g1987 23 95 103 NOR3_X1
X119 I6930 I6911 104 NAND2_X1
X120 11 95 104 105 AND3_X1
X121 101 105 96 106 OAI21_X1
X122 g1987 g2106 99 107 AND3_X1
X123 23 25 I6911 108 NOR3_X1
X124 g7367 107 108 109 AND3_X1
X125 23 I6930 31 110 NOR3_X1
X126 g7367 107 110 111 AND3_X1
X127 I6900 I6930 31 112 NOR3_X1
X128 g7367 107 112 113 AND3_X1
X129 I6900 25 I6911 114 NOR3_X1
X130 g7367 114 115 AND2_X1
X131 g7367 107 114 116 AND3_X1
X132 109 111 113 116 117 NOR4_X1
X133 106 117 118 NAND2_X1
X134 g849 109 111 g1849 119 AOI22_X1
X135 g2973 113 116 g3 g3780 102 120 AOI222_X1
X136 119 120 121 AND2_X1
X137 g1987 23 I6930 31 122 NOR4_X1
X138 g2106 I6956 g2149 I6946 123 AND4_X1
X139 g7367 122 123 124 AND3_X1
X140 11 123 125 AND2_X1
X141 g7367 103 123 126 AND3_X1
X142 I6900 I6930 I6911 127 NOR3_X1
X143 g1987 127 128 AND2_X1
X144 g7367 123 128 129 AND3_X1
X145 124 126 129 130 NOR3_X1
X146 I6900 104 131 NOR2_X1
X147 11 g7367 100 131 132 AND4_X1
X148 g1987 g7367 114 123 133 AND4_X1
X149 132 133 134 NOR2_X1
X150 97 g7367 123 135 AND3_X1
X151 g7367 107 131 136 AND3_X1
X152 135 136 137 NOR2_X1
X153 11 127 138 AND2_X1
X154 g7367 123 138 139 AND3_X1
X155 139 125 115 140 AOI21_X1
X156 130 134 137 140 141 NAND4_X1
X157 g757 124 136 g524 142 AOI22_X1
X158 g4526 133 135 g2629 143 AOI22_X1
X159 g4581 132 139 g698 144 AOI22_X1
X160 g2638 126 129 g647 145 AOI22_X1
X161 142 143 144 145 146 AND4_X1
X162 g2106 I6956 g2149 I6946 147 OR4_X1
X163 11 147 148 NOR2_X1
X164 g7367 114 148 149 AND3_X1
X165 g7367 114 148 150 NAND3_X1
X166 g1987 147 151 NOR2_X1
X167 I6900 I6930 I6911 152 NAND3_X1
X168 99 127 35 153 OAI21_X1
X169 g55 20 98 153 154 NOR4_X1
X170 g7367 99 127 35 155 OAI211_X1
X171 g387 g7367 114 151 156 NAND4_X1
X172 g2821 g7367 100 138 157 NAND4_X1
X173 g7367 108 148 158 AND3_X1
X174 g550 g7367 108 148 159 NAND4_X1
X175 g55 20 98 147 160 NOR4_X1
X176 128 160 161 AND2_X1
X177 128 160 162 NAND2_X1
X178 g182 128 160 163 NAND3_X1
X179 156 157 159 163 164 NAND4_X1
X180 155 164 g443 149 165 AOI211_X1
X181 g3761 g7367 131 148 166 NAND4_X1
X182 g55 20 98 152 167 NOR4_X1
X183 148 167 168 AND2_X1
X184 148 167 169 NAND2_X1
X185 g2774 148 167 170 NAND3_X1
X186 151 167 171 AND2_X1
X187 g2873 151 167 172 NAND3_X1
X188 g2709 g7367 131 151 173 NAND4_X1
X189 166 170 172 173 174 NAND4_X1
X190 g7367 112 151 175 AND3_X1
X191 g7367 112 151 176 NAND3_X1
X192 138 160 177 AND2_X1
X193 g162 138 160 178 NAND3_X1
X194 178 176 63 179 OAI21_X1
X195 g105 103 160 180 NAND3_X1
X196 g7367 100 128 181 AND3_X1
X197 g7367 100 128 182 NAND3_X1
X198 180 182 33 183 OAI21_X1
X199 g281 g7367 112 148 184 NAND4_X1
X200 g7367 110 148 185 AND3_X1
X201 g362 g7367 110 148 186 NAND4_X1
X202 97 160 187 NAND2_X1
X203 g138 97 160 188 NAND3_X1
X204 122 160 189 AND2_X1
X205 122 160 190 NAND2_X1
X206 g306 122 160 191 NAND3_X1
X207 184 186 188 191 192 NAND4_X1
X208 174 179 183 192 193 NOR4_X1
X209 118 121 141 146 165 193 g9360 AOI222_X1
X210 g9360 194 INV_X1
X211 g2637 126 139 g694 195 AOI22_X1
X212 g49 124 133 g4546 196 AOI22_X1
X213 g648 129 132 g4589 197 AOI22_X1
X214 g2630 135 136 g527 198 AOI22_X1
X215 195 196 197 198 199 AND4_X1
X216 g2966 113 200 NAND2_X1
X217 g2721 101 103 201 NAND3_X1
X218 g3771 102 116 g48 202 AOI22_X1
X219 g852 109 111 g3285 203 AOI22_X1
X220 200 201 202 203 204 AND4_X1
X221 g142 97 160 205 NAND3_X1
X222 g284 g7367 112 148 206 NAND4_X1
X223 g3743 g7367 131 148 207 NAND4_X1
X224 g2863 151 167 208 NAND3_X1
X225 205 206 207 208 209 NAND4_X1
X226 155 209 161 g185 210 AOI211_X1
X227 g553 158 189 g309 211 AOI22_X1
X228 g228 175 181 g3825 212 AOI22_X1
X229 g110 103 160 213 NAND3_X1
X230 g2807 g7367 100 138 214 NAND4_X1
X231 g446 g7367 114 148 215 NAND4_X1
X232 g168 138 160 216 NAND3_X1
X233 213 214 215 216 217 AND4_X1
X234 g2761 148 167 218 NAND3_X1
X235 g390 g7367 114 151 219 NAND4_X1
X236 g2700 g7367 131 151 220 NAND4_X1
X237 g365 g7367 110 148 221 NAND4_X1
X238 218 219 220 221 222 AND4_X1
X239 211 212 217 222 223 AND4_X1
X240 141 199 210 223 204 118 g9362 AOI222_X1
X241 g9362 224 INV_X1
X242 g9360 g9362 225 XOR2_X1
X243 g753 124 126 g2641 129 g645 226 AOI222_X1
X244 g4559 132 136 g510 227 AOI22_X1
X245 g2627 135 139 g722 228 AOI22_X1
X246 226 227 228 229 AND3_X1
X247 g843 109 230 NAND2_X1
X248 g3802 102 113 g2989 116 g4 231 AOI222_X1
X249 230 231 232 AND2_X1
X250 g3485 g7367 131 151 233 AND4_X1
X251 g219 g7367 112 151 234 NAND4_X1
X252 g267 g7367 112 148 235 NAND4_X1
X253 g3557 151 167 236 NAND3_X1
X254 g348 g7367 110 148 237 NAND4_X1
X255 234 235 236 237 238 NAND4_X1
X256 155 233 238 239 NOR3_X1
X257 g2795 148 167 240 NAND3_X1
X258 240 182 54 13 187 241 OAI221_X1
X259 g154 138 160 242 NAND3_X1
X260 g381 g7367 114 151 243 NAND4_X1
X261 g5146 103 160 244 NAND3_X1
X262 g573 g7367 108 148 245 NAND4_X1
X263 242 243 244 245 246 NAND4_X1
X264 g3784 g7367 131 148 247 NAND4_X1
X265 247 190 22 248 OAI21_X1
X266 26 150 162 64 249 OAI22_X1
X267 241 246 248 249 250 NOR4_X1
X268 141 229 239 250 232 118 g9372 AOI222_X1
X269 g9372 251 INV_X1
X270 g2982 113 116 g2 g3787 102 252 AOI222_X1
X271 g846 109 111 g863 253 AOI22_X1
X272 252 253 254 AND2_X1
X273 g756 124 139 g702 132 g4571 255 AOI222_X1
X274 g2618 129 135 g2628 256 AOI22_X1
X275 g2639 126 136 g513 257 AOI22_X1
X276 255 256 257 258 AND3_X1
X277 g100 103 160 259 NAND3_X1
X278 g3506 g7367 100 138 260 NAND4_X1
X279 g270 g7367 112 148 261 NAND4_X1
X280 g3462 g7367 131 151 262 NAND4_X1
X281 259 260 261 262 263 NAND4_X1
X282 155 263 171 g3542 264 AOI211_X1
X283 18 169 176 8 265 OAI22_X1
X284 g3774 g7367 131 148 266 NAND4_X1
X285 266 150 65 267 OAI21_X1
X286 g384 g7367 114 151 268 NAND4_X1
X287 g2724 g7367 100 128 269 NAND4_X1
X288 g134 97 160 270 NAND3_X1
X289 g351 g7367 110 148 271 NAND4_X1
X290 268 269 270 271 272 NAND4_X1
X291 g303 122 160 273 NAND3_X1
X292 I6711 138 160 274 NAND3_X1
X293 g547 g7367 108 148 275 NAND4_X1
X294 g181 128 160 276 NAND3_X1
X295 273 274 275 276 277 NAND4_X1
X296 265 267 272 277 278 NOR4_X1
X297 118 254 264 278 258 141 g9361 AOI222_X1
X298 g9361 279 INV_X1
X299 g9372 g9361 280 XNOR2_X1
X300 225 280 281 XNOR2_X1
X301 g690 129 135 g2636 282 AOI22_X1
X302 g751 124 136 g498 283 AOI22_X1
X303 282 283 284 AND2_X1
X304 g831 109 285 NAND2_X1
X305 g2703 102 113 g3008 g5988 116 286 AOI222_X1
X306 285 286 287 AND2_X1
X307 g3819 g7367 131 148 288 NAND4_X1
X308 g2798 g7367 100 128 289 NAND4_X1
X309 g255 g7367 112 148 290 NAND4_X1
X310 g114 97 160 291 NAND3_X1
X311 288 289 290 291 292 AND4_X1
X312 155 158 g563 293 AOI21_X1
X313 g417 149 177 g146 294 AOI22_X1
X314 g2837 168 185 g336 295 AOI22_X1
X315 292 293 294 295 296 AND4_X1
X316 296 284 141 118 287 g9376 AOI221_X1
X317 g9376 297 INV_X1
X318 g633 129 135 g2624 298 AOI22_X1
X319 g755 124 136 g501 299 AOI22_X1
X320 298 299 300 AND2_X1
X321 g834 109 301 NAND2_X1
X322 g3822 102 113 g2999 116 g5971 302 AOI222_X1
X323 301 302 303 AND2_X1
X324 g258 g7367 112 148 304 NAND4_X1
X325 g339 g7367 110 148 305 NAND4_X1
X326 304 305 19 187 306 OAI211_X1
X327 g3812 g7367 131 148 307 NAND4_X1
X328 307 182 7 308 OAI21_X1
X329 66 162 169 37 309 OAI22_X1
X330 g570 g7367 108 148 310 NAND4_X1
X331 g420 g7367 114 148 311 NAND4_X1
X332 g173 138 160 312 NAND3_X1
X333 154 310 311 312 313 NAND4_X1
X334 306 308 309 313 314 NOR4_X1
X335 314 300 141 118 303 g9375 AOI221_X1
X336 g9375 315 INV_X1
X337 g9376 g9375 316 XOR2_X1
X338 g635 129 132 g4544 135 g2626 317 AOI222_X1
X339 g752 124 126 g2631 318 AOI22_X1
X340 g507 136 139 g723 319 AOI22_X1
X341 317 318 319 320 AND3_X1
X342 g840 109 321 NAND2_X1
X343 g3808 102 113 g2992 g5 116 322 AOI222_X1
X344 321 322 323 AND2_X1
X345 g179 161 324 NAND2_X1
X346 g2804 168 177 g174 325 AOI22_X1
X347 g591 158 175 g216 326 AOI22_X1
X348 154 324 325 326 327 AND4_X1
X349 g2764 181 328 NAND2_X1
X350 g3574 171 189 g297 329 AOI22_X1
X351 g3488 g7367 131 151 330 NAND4_X1
X352 g426 g7367 114 148 331 NAND4_X1
X353 g126 97 160 332 NAND3_X1
X354 g5145 103 160 333 NAND3_X1
X355 330 331 332 333 334 AND4_X1
X356 g3798 g7367 131 148 335 NAND4_X1
X357 g345 g7367 110 148 336 NAND4_X1
X358 g264 g7367 112 148 337 NAND4_X1
X359 g378 g7367 114 151 338 NAND4_X1
X360 335 336 337 338 339 AND4_X1
X361 328 329 334 339 340 AND4_X1
X362 141 320 327 340 323 118 g9373 AOI222_X1
X363 g9373 341 INV_X1
X364 g634 129 135 g2625 342 AOI22_X1
X365 g754 124 136 g504 343 AOI22_X1
X366 342 343 344 AND2_X1
X367 g837 109 345 NAND2_X1
X368 g3815 102 113 g2996 116 g5956 346 AOI222_X1
X369 345 346 347 AND2_X1
X370 g122 97 160 348 AND3_X1
X371 348 161 g184 g588 158 349 AOI221_X1
X372 g2818 168 185 g342 350 AOI22_X1
X373 g3805 g7367 131 148 351 AND4_X1
X374 351 177 g150 352 AOI21_X1
X375 g261 g7367 112 148 353 NAND4_X1
X376 154 353 354 AND2_X1
X377 g423 149 181 g2777 355 AOI22_X1
X378 350 352 354 355 356 AND4_X1
X379 141 344 349 356 347 118 g9374 AOI222_X1
X380 g9374 357 INV_X1
X381 g9373 g9374 358 XOR2_X1
X382 316 358 359 XNOR2_X1
X383 281 359 360 AND2_X1
X384 g44 281 359 361 OAI21_X1
X385 g7367 114 151 362 NAND3_X1
X386 94 360 361 g9389 OAI21_X1
X387 g4748 94 360 361 g9378 OAI211_X1
X388 g1251 g4652 363 NOR2_X1
X389 g1092 363 364 AND2_X1
X390 4 g1158 g1092 g1130 365 AND4_X1
X391 g1134 365 366 AND2_X1
X392 g1138 366 367 AND2_X1
X393 g1134 g1138 g1149 365 368 AND4_X1
X394 g1037 368 369 AND2_X1
X395 g1041 g1037 368 370 AND3_X1
X396 g1045 g1049 370 371 AND3_X1
X397 g1053 371 372 AND2_X1
X398 g4652 47 373 NOR2_X1
X399 g1158 g1073 374 NAND2_X1
X400 373 372 g1057 375 AOI21_X1
X401 375 372 g1057 376 OAI21_X1
X402 376 g8959 INV_X1
X403 g1307 g1272 g1276 377 AND3_X1
X404 44 377 g1280 378 OAI21_X1
X405 378 377 g1280 g7112 AOI21_X1
X406 g969 g970 g963 g962 379 OR4_X1
X407 g966 g971 g972 379 380 NOR4_X1
X408 9 380 g7298 NOR2_X1
X409 g1489 g1494 g1499 g1481 381 AND4_X1
X410 4 g1489 g1481 382 AND3_X1
X411 g1504 381 383 NAND2_X1
X412 g1251 383 384 NOR2_X1
X413 g1509 384 385 AND2_X1
X414 g1514 385 386 AND2_X1
X415 g1513 g1524 387 AND2_X1
X416 g1789 g150 388 AND2_X1
X417 388 g1524 g1513 389 OAI21_X1
X418 g1514 381 390 AND2_X1
X419 g174 29 383 391 OAI21_X1
X420 g1467 g1472 g1462 392 NAND3_X1
X421 4 g1519 393 NAND2_X1
X422 388 392 393 394 NOR3_X1
X423 391 394 g174 390 395 OAI211_X1
X424 395 389 387 396 OAI21_X1
X425 396 397 INV_X1
X426 g1514 385 398 NOR2_X1
X427 386 396 398 g7775 NOR3_X1
X428 10 g878 g5163 NOR2_X1
X429 g4748 279 g9299 NAND2_X1
X430 g1148 g1098 g1087 399 AND3_X1
X431 g1098 g1087 g1148 400 AOI21_X1
X432 g1097 399 400 g6854 NOR3_X1
X433 g1292 g1296 g1300 g1288 401 NAND4_X1
X434 g1280 g1284 g1272 g1276 402 NAND4_X1
X435 401 402 g4681 NOR2_X1
X436 g1025 g1021 g1018 403 OAI21_X1
X437 g43 41 g1033 404 AND3_X1
X438 404 g8234 INV_X1
X439 404 g1034 g43 405 AOI21_X1
X440 405 403 41 g8871 AOI21_X1
X441 g6850 g162 g7105 NOR2_X1
X442 12 g3124 406 NOR2_X1
X443 g878 g3659 406 g5165 AND3_X1
X444 2 402 407 NOR2_X1
X445 g1292 g1288 407 408 AND3_X1
X446 g1300 408 409 NAND2_X1
X447 g1296 409 410 XOR2_X1
X448 I6949 410 g7304 NOR2_X1
X449 g6850 g1901 74 g6664 NOR3_X1
X450 g1789 g6664 g7514 NOR2_X1
X451 g1412 g1430 g1431 g5180 OR3_X1
X452 g1430 g1431 g1412 g1415 g5745 AOI211_X1
X453 374 369 g1041 411 OAI21_X1
X454 370 411 g7765 NOR2_X1
X455 g1057 g1061 372 412 AND3_X1
X456 374 412 g1065 413 OAI21_X1
X457 413 412 g1065 g9117 AOI21_X1
X458 g1348 g1345 83 414 AND3_X1
X459 g1351 414 415 AND2_X1
X460 g1247 g1351 414 416 OAI21_X1
X461 415 416 g7530 NOR2_X1
X462 g1489 g1481 4 417 AOI21_X1
X463 382 396 417 g7770 NOR3_X1
X464 374 365 g1134 418 OAI21_X1
X465 366 418 g7523 NOR2_X1
X466 g1106 g1102 399 419 AND3_X1
X467 g1110 419 420 AND2_X1
X468 g1106 g1102 g1087 421 NAND3_X1
X469 g1098 g1114 g1110 422 NAND3_X1
X470 g1118 g1114 420 423 NAND3_X1
X471 423 424 INV_X1
X472 g1122 424 425 NAND2_X1
X473 g1122 g1126 424 426 NAND3_X1
X474 g1122 g1126 g1118 g1142 427 NAND4_X1
X475 421 422 427 g7217 NOR3_X1
X476 g1097 57 426 g7217 g1148 g8874 AOI221_X1
X477 g1333 I7262 428 NOR2_X1
X478 6 80 428 g6863 NOR3_X1
X479 g1 380 g7103 NOR2_X1
X480 g1226 g1223 g1224 g1225 429 NAND4_X1
X481 g1227 g1228 g1230 430 NAND3_X1
X482 g1229 429 430 431 NOR3_X1
X483 g1257 431 g6381 NAND2_X1
X484 g1263 431 g6380 NAND2_X1
X485 g1247 g6381 g6380 g6098 AND3_X1
X486 g1459 g1454 g1450 432 AOI21_X1
X487 g1454 g1450 g1444 433 AOI21_X1
X488 g1459 433 g1454 g1450 g5187 AOI211_X1
X489 g1354 415 434 AND2_X1
X490 g1357 434 435 AND2_X1
X491 g1247 g1357 434 436 OAI21_X1
X492 435 436 g8675 NOR2_X1
X493 g1432 g1439 g1435 437 AOI21_X1
X494 g1439 g1432 438 NAND2_X1
X495 g1443 437 g1432 g1439 g5183 AOI211_X1
X496 6 I7262 g6862 NOR2_X1
X497 g1247 g1342 82 439 OAI21_X1
X498 83 439 g7119 NOR2_X1
X499 g202 g205 59 440 AOI21_X1
X500 440 59 g205 441 OAI21_X1
X501 g190 441 g5732 AND2_X1
X502 44 408 g1300 442 OAI21_X1
X503 442 408 g1300 g7303 AOI21_X1
X504 g1217 g1220 g1214 443 NAND3_X1
X505 49 g1211 443 g5738 NOR3_X1
X506 g1 g6850 380 g8672 NOR3_X1
X507 g1284 377 g1280 444 AOI21_X1
X508 I6949 407 444 g7301 NOR3_X1
X509 g1519 386 445 AND2_X1
X510 g1467 g1462 445 446 AND3_X1
X511 397 446 g1472 447 OAI21_X1
X512 g1467 g1472 g1462 445 448 AND4_X1
X513 447 448 g8960 NOR2_X1
X514 g1069 g1065 412 449 NAND3_X1
X515 449 450 INV_X1
X516 373 449 47 g9145 AOI21_X1
X517 g1760 127 151 451 NAND3_X1
X518 g4 451 452 NOR2_X1
X519 g172 452 451 24 g7739 AOI211_X1
X520 g1276 g1272 g1307 453 AOI21_X1
X521 I6949 377 453 g6384 NOR3_X1
X522 g1247 g1336 80 454 OAI21_X1
X523 81 454 g6864 NOR2_X1
X524 g4748 224 g9280 NAND2_X1
X525 g4748 357 g9310 NAND2_X1
X526 g871 g933 g929 455 NAND3_X1
X527 455 g3002 INV_X1
X528 g1207 50 443 g5737 NOR3_X1
X529 g1467 g1462 445 456 AOI21_X1
X530 396 446 456 g8875 NOR3_X1
X531 g1061 372 g1057 457 AOI21_X1
X532 373 412 457 g9035 NOR3_X1
X533 397 382 g1494 458 OAI21_X1
X534 458 382 g1494 g7771 AOI21_X1
X535 g4748 315 g9312 NAND2_X1
X536 g1405 g1428 g1429 g5177 OR3_X1
X537 g1428 g1429 g1405 g1408 g5744 AOI211_X1
X538 g1021 g1025 459 NOR2_X1
X539 g1018 459 460 OR2_X1
X540 405 460 41 g8869 AOI21_X1
X541 g1317 g1313 461 NAND2_X1
X542 g1318 g1317 g1313 462 NAND3_X1
X543 28 462 463 NOR2_X1
X544 g1320 463 464 AND2_X1
X545 g1321 464 465 NAND2_X1
X546 g1321 g1322 464 466 NAND3_X1
X547 21 466 467 NOR2_X1
X548 g1324 g1325 467 468 NAND3_X1
X549 36 468 469 NOR2_X1
X550 g1327 g1328 469 470 NAND3_X1
X551 g1329 71 470 g7308 AOI21_X1
X552 g1499 382 g1494 471 AOI21_X1
X553 396 471 4 381 g7772 AOI211_X1
X554 g985 g990 472 NAND2_X1
X555 g995 472 473 XOR2_X1
X556 g43 473 g7517 NOR2_X1
X557 g1269 g1268 g4656 NOR2_X1
X558 g43 g973 380 g7566 AND3_X1
X559 g7566 474 INV_X1
X560 g1901 474 g9133 NOR2_X1
X561 397 g1481 4 475 OAI21_X1
X562 475 g1481 4 g7769 AOI21_X1
X563 397 448 g1477 476 OAI21_X1
X564 476 448 g1477 g9036 AOI21_X1
X565 g985 g990 477 NOR2_X1
X566 g43 g985 477 g995 g7515 AOI211_X1
X567 g1504 4 381 478 AOI21_X1
X568 384 396 478 g7773 NOR3_X1
X569 39 g1087 g1148 479 OAI21_X1
X570 479 g1087 g1148 g6853 AOI21_X1
X571 432 g1450 g1444 480 OAI21_X1
X572 480 g1450 g1444 g5186 AOI21_X1
X573 g187 g186 52 481 AOI21_X1
X574 481 52 g186 482 OAI21_X1
X575 g190 482 g5730 AND2_X1
X576 374 366 g1138 483 OAI21_X1
X577 367 483 g7524 NOR2_X1
X578 g1247 g1360 435 484 OAI21_X1
X579 484 435 g1360 g8676 AOI21_X1
X580 374 368 g1037 485 OAI21_X1
X581 369 485 g7519 NOR2_X1
X582 g1405 g1412 g7063 NAND2_X1
X583 g1435 g1439 486 XOR2_X1
X584 40 438 486 g5182 AND3_X1
X585 g287 75 487 NOR2_X1
X586 g216 g211 487 g6311 MUX2_X1
X587 g803 g799 488 AND2_X1
X588 g809 g806 488 489 AND3_X1
X589 g775 g812 489 490 NAND3_X1
X590 g778 490 g7296 XNOR2_X1
X591 g936 67 491 NAND2_X1
X592 g5956 g949 491 g8666 MUX2_X1
X593 g530 77 492 NOR2_X1
X594 g3875 g476 492 g6357 MUX2_X1
X595 g402 g420 362 g9104 MUX2_X1
X596 g368 68 493 NOR2_X1
X597 g359 g355 493 g6336 MUX2_X1
X598 g5 g950 491 g8667 MUX2_X1
X599 g3867 g423 362 g9105 MUX2_X1
X600 g440 g446 362 g9102 MUX2_X1
X601 g309 g296 493 g6328 MUX2_X1
X602 g1329 g108 494 NAND2_X1
X603 g1325 467 g1324 495 AOI21_X1
X604 5 468 496 NAND2_X1
X605 494 495 496 g7305 OAI21_X1
X606 g1207 g1211 497 NAND2_X1
X607 g1214 g1207 g1211 498 AND3_X1
X608 443 497 499 NOR2_X1
X609 g1223 499 500 NAND2_X1
X610 g1223 499 501 XNOR2_X1
X611 38 501 g6379 NAND2_X1
X612 g1110 419 502 NOR2_X1
X613 39 420 502 g7299 OAI21_X1
X614 g33 438 503 NOR2_X1
X615 g1443 g33 438 504 AOI21_X1
X616 504 438 g33 g5184 OAI21_X1
X617 g4050 g563 362 g9029 MUX2_X1
X618 g449 70 505 NOR2_X1
X619 g399 g393 505 g6342 MUX2_X1
X620 g510 g3882 132 g9115 MUX2_X1
X621 g2628 g2618 g2626 g635 g2641 g722 506 AOI222_X1
X622 g2629 g647 g645 g2627 507 AOI22_X1
X623 g690 g2636 g694 g2637 508 AOI22_X1
X624 506 507 508 509 AND3_X1
X625 g2639 g702 g2625 g634 g648 g2630 510 AOI222_X1
X626 g633 g2624 g2631 g723 g698 g2638 511 AOI222_X1
X627 509 510 511 g6371 NAND3_X1
X628 g43 g976 380 g7406 AND3_X1
X629 g1114 420 512 XNOR2_X1
X630 39 512 g7521 NAND2_X1
X631 g1760 103 123 513 NAND3_X1
X632 g3 g2638 513 g7752 MUX2_X1
X633 g252 g270 176 g9092 MUX2_X1
X634 g1760 97 123 514 AND3_X1
X635 g2630 g48 514 g7749 MUX2_X1
X636 g3878 g397 505 g6346 MUX2_X1
X637 g1217 498 515 XNOR2_X1
X638 38 515 g6377 NAND2_X1
X639 g4561 g553 362 g9028 MUX2_X1
X640 g2 g952 491 g8669 MUX2_X1
X641 g297 g292 493 g6324 MUX2_X1
X642 g1760 107 110 516 NAND3_X1
X643 g48 g3285 516 g8220 MUX2_X1
X644 g4582 g517 492 g6362 MUX2_X1
X645 g2 g2639 513 g7753 MUX2_X1
X646 g513 g4560 132 g9116 MUX2_X1
X647 g240 g258 176 g9088 MUX2_X1
X648 43 g595 517 NAND2_X1
X649 g535 g3880 517 g6363 MUX2_X1
X650 g246 g234 487 g6319 MUX2_X1
X651 g4590 g573 362 g9033 MUX2_X1
X652 g4589 g458 492 g6354 MUX2_X1
X653 g1326 468 518 XNOR2_X1
X654 g103 518 5 g7306 MUX2_X1
X655 g1409 g7063 62 g5178 MUX2_X1
X656 g4559 g455 492 g6351 MUX2_X1
X657 g583 g4583 517 g6369 MUX2_X1
X658 g1223 g1224 499 519 NAND3_X1
X659 g1224 500 520 XOR2_X1
X660 38 520 g6857 NAND2_X1
X661 g1231 g1207 50 521 AOI21_X1
X662 521 50 g1207 g5174 OAI21_X1
X663 g1288 407 522 XNOR2_X1
X664 44 401 522 g7527 NAND3_X1
X665 g1034 24 g5051 NOR2_X1
X666 g1236 g5051 g6385 OR2_X1
X667 g48 g168 451 g7742 MUX2_X1
X668 g255 g237 175 g9087 MUX2_X1
X669 45 g1416 g1421 g4665 OAI21_X1
X670 g1118 g1114 420 523 AOI21_X1
X671 39 424 523 g7766 OAI21_X1
X672 g1122 423 524 XOR2_X1
X673 39 524 g8225 NAND2_X1
X674 g4 g2641 513 g7755 MUX2_X1
X675 g222 g213 487 g6313 MUX2_X1
X676 g556 g4050 517 g6366 MUX2_X1
X677 g3659 g3124 525 NAND2_X1
X678 g3086 455 525 526 OAI21_X1
X679 g3086 g3659 g3124 527 NOR3_X1
X680 455 527 528 NAND2_X1
X681 g3086 g3659 56 529 NOR3_X1
X682 455 527 529 g1590 530 AOI22_X1
X683 g2651 g2650 g2649 g2648 531 NOR4_X1
X684 g2647 g2646 g2645 g2644 532 NOR4_X1
X685 531 532 533 NAND2_X1
X686 g1590 g1686 533 534 AOI21_X1
X687 526 530 534 g7099 OAI21_X1
X688 g275 g273 487 g6322 MUX2_X1
X689 g1322 465 535 XNOR2_X1
X690 g121 535 5 g7116 MUX2_X1
X691 g3880 g547 362 g9026 MUX2_X1
X692 g228 g215 487 g6315 MUX2_X1
X693 g1324 467 536 XOR2_X1
X694 g113 536 5 g7118 MUX2_X1
X695 g399 g417 362 g9103 MUX2_X1
X696 g4 g951 491 g8668 MUX2_X1
X697 g306 g295 493 g6327 MUX2_X1
X698 g527 g4582 132 g9110 MUX2_X1
X699 g243 g233 487 g6318 MUX2_X1
X700 g390 g377 505 g6341 MUX2_X1
X701 g4748 251 g9305 NAND2_X1
X702 g1317 g1313 537 XOR2_X1
X703 g141 537 5 g5743 MUX2_X1
X704 g5971 g948 491 g8665 MUX2_X1
X705 g48 g2637 513 g7751 MUX2_X1
X706 g243 g261 176 g9089 MUX2_X1
X707 g4748 194 g9297 NAND2_X1
X708 48 519 538 NOR2_X1
X709 g1226 538 539 NOR2_X1
X710 429 443 497 540 NOR3_X1
X711 38 539 540 g6859 OAI21_X1
X712 g4056 g570 362 g9030 MUX2_X1
X713 g1126 425 541 XOR2_X1
X714 39 541 g8674 NAND2_X1
X715 g252 g236 487 g6321 MUX2_X1
X716 g321 g313 493 g6330 MUX2_X1
X717 g267 g249 175 g9091 MUX2_X1
X718 g237 g231 487 g6316 MUX2_X1
X719 g249 g235 487 g6320 MUX2_X1
X720 g3 g162 451 g7741 MUX2_X1
X721 g4748 341 g9308 NAND2_X1
X722 g303 g294 493 g6326 MUX2_X1
X723 g387 g376 505 g6340 MUX2_X1
X724 g1329 g145 542 NAND2_X1
X725 542 g1313 g1329 g5742 OAI21_X1
X726 g579 g4573 517 g6368 MUX2_X1
X727 g264 g246 175 g9090 MUX2_X1
X728 g1327 469 543 XOR2_X1
X729 g98 543 5 g7307 MUX2_X1
X730 g543 g4561 517 g6365 MUX2_X1
X731 I7211 395 544 XNOR2_X1
X732 388 544 545 NOR2_X1
X733 545 388 g1524 g8226 AOI21_X1
X734 g1318 461 546 XNOR2_X1
X735 g137 546 5 g6861 MUX2_X1
X736 32 g944 g8662 NAND2_X1
X737 g48 g954 491 g8671 MUX2_X1
X738 g498 g4595 132 g9111 MUX2_X1
X739 g2626 g5 514 g7745 MUX2_X1
X740 g3867 g395 505 g6344 MUX2_X1
X741 g504 g3875 132 g9113 MUX2_X1
X742 g318 g336 190 g9095 MUX2_X1
X743 g351 g333 189 g9100 MUX2_X1
X744 76 g6098 g7111 OR2_X1
X745 g5 g174 451 g7737 MUX2_X1
X746 g5 g2631 513 g7754 MUX2_X1
X747 g300 g293 493 g6325 MUX2_X1
X748 g5988 491 g8664 OR2_X1
X749 g365 g359 189 g9094 MUX2_X1
X750 17 g65 g4748 g7474 OAI21_X1
X751 g1189 g16 g3861 OR2_X1
X752 g225 g214 487 g6314 MUX2_X1
X753 g437 g443 362 g9101 MUX2_X1
X754 g3 g953 491 g8670 MUX2_X1
X755 g339 g321 189 g9096 MUX2_X1
X756 g11 g12 g1849 g7102 MUX2_X1
X757 g1097 399 g1102 547 AOI21_X1
X758 39 419 547 1 g7107 AOI22_X1
X759 g5971 g173 451 g7736 MUX2_X1
X760 528 533 46 548 AOI21_X1
X761 g3659 61 406 549 NAND3_X1
X762 g1686 549 550 NOR2_X1
X763 529 548 550 551 NOR3_X1
X764 12 525 g5164 NOR2_X1
X765 455 g5164 552 NAND2_X1
X766 10 12 g3659 56 553 OR4_X1
X767 552 553 g1590 551 g7101 OAI211_X1
X768 g1321 464 554 XOR2_X1
X769 g125 554 5 g7115 MUX2_X1
X770 g1166 g1167 g1170 g1173 555 OR4_X1
X771 g7217 555 g7767 OR2_X1
X772 g345 g327 189 g9098 MUX2_X1
X773 g3882 g478 492 g6359 MUX2_X1
X774 g4595 g474 492 g6355 MUX2_X1
X775 38 g1207 g5173 NAND2_X1
X776 g4571 g456 492 g6352 MUX2_X1
X777 g4573 g588 362 g9031 MUX2_X1
X778 g3868 g475 492 g6356 MUX2_X1
X779 g38 503 556 XNOR2_X1
X780 40 556 g5746 NAND2_X1
X781 g1319 462 557 XNOR2_X1
X782 g133 557 5 g7113 MUX2_X1
X783 g3879 g477 492 g6358 MUX2_X1
X784 g240 g232 487 g6317 MUX2_X1
X785 g414 g432 362 g9108 MUX2_X1
X786 g4583 g591 362 g9032 MUX2_X1
X787 g3 g1849 516 g8221 MUX2_X1
X788 g356 g354 493 g6335 MUX2_X1
X789 g437 g435 505 g6348 MUX2_X1
X790 g1227 540 558 AND2_X1
X791 g1227 540 559 NOR2_X1
X792 38 558 559 g7108 OAI21_X1
X793 g378 g373 505 g6337 MUX2_X1
X794 516 g1686 g863 560 OAI21_X1
X795 560 516 27 g8222 OAI21_X1
X796 g384 g375 505 g6339 MUX2_X1
X797 g878 g3659 561 NOR2_X1
X798 g1686 529 561 406 562 AOI22_X1
X799 549 552 562 g7100 NAND3_X1
X800 g1760 g1987 114 123 563 NAND4_X1
X801 34 98 3 564 OAI21_X1
X802 g48 564 563 g8956 MUX2_X1
X803 g2618 g1158 g1176 565 NAND3_X1
X804 565 15 14 g6856 OAI21_X1
X805 g381 g374 505 g6338 MUX2_X1
X806 g5956 g150 451 g7738 MUX2_X1
X807 g4748 297 g9314 NAND2_X1
X808 g1228 g1229 558 566 AND3_X1
X809 g1230 566 567 AND2_X1
X810 I6564 566 g1230 568 OAI21_X1
X811 38 567 568 g7300 OAI21_X1
X812 g348 g330 189 g9099 MUX2_X1
X813 g539 g4545 517 g6364 MUX2_X1
X814 g440 g436 505 g6349 MUX2_X1
X815 g587 g4590 517 g6370 MUX2_X1
X816 g1080 g1081 569 NOR2_X1
X817 569 g1081 g1176 g6852 AOI21_X1
X818 g1323 466 570 XNOR2_X1
X819 g117 570 5 g7117 MUX2_X1
X820 g330 g316 493 g6333 MUX2_X1
X821 g3874 g396 505 g6345 MUX2_X1
X822 g318 g312 493 g6329 MUX2_X1
X823 g278 g284 176 g9086 MUX2_X1
X824 g501 g3868 132 g9112 MUX2_X1
X825 g1226 g1223 g1224 g1225 571 NOR4_X1
X826 g1227 g1228 g1230 g1229 572 NOR4_X1
X827 571 572 g5175 NAND2_X1
X828 g1329 g93 573 NAND2_X1
X829 g1328 469 g1327 574 AOI21_X1
X830 5 470 575 NAND2_X1
X831 573 574 575 g7309 OAI21_X1
X832 g4560 g479 492 g6360 MUX2_X1
X833 g2 I6711 451 g7740 MUX2_X1
X834 g327 g315 493 g6332 MUX2_X1
X835 g1320 463 576 XOR2_X1
X836 g129 576 5 g7114 MUX2_X1
X837 g4544 g454 492 g6350 MUX2_X1
X838 g507 g3879 132 g9114 MUX2_X1
X839 g4581 g457 492 g6353 MUX2_X1
X840 g5988 g146 451 g7735 MUX2_X1
X841 g281 g275 175 g9085 MUX2_X1