* Nangila SPICE Auto-Synthesized Netlist
.SUBCKT INV_X1 A Z
M1 Z A 0 0 NMOS W=0.2u L=0.05u
M2 Z A 1 1 PMOS W=0.4u L=0.05u
.ENDS

.SUBCKT NAND2_X1 A1 A2 Z
M1 Z A1 1 1 PMOS W=0.4u L=0.05u
M2 Z A2 1 1 PMOS W=0.4u L=0.05u
M3 Z A1 int 0 NMOS W=0.2u L=0.05u
M4 int A2 0 0 NMOS W=0.2u L=0.05u
.ENDS

.SUBCKT AND2_X1 A1 A2 Z
X1 A1 A2 Z_bar NAND2_X1
X2 Z_bar Z INV_X1
.ENDS

.SUBCKT NOR2_X1 A1 A2 Z
M1 int1 A1 1 1 PMOS W=0.4u L=0.05u
M2 Z A2 int1 1 PMOS W=0.4u L=0.05u
M3 Z A1 0 0 NMOS W=0.2u L=0.05u
M4 Z A2 0 0 NMOS W=0.2u L=0.05u
.ENDS

.SUBCKT OR2_X1 A1 A2 Z
X1 A1 A2 Z_bar NOR2_X1
X2 Z_bar Z INV_X1
.ENDS

.SUBCKT XOR2_X1 A1 A2 Z
X1 A1 A2 int1 AND2_X1
X2 A1 A2 int2 NOR2_X1
X3 int1 int2 int3 NOR2_X1
X4 int3 Z INV_X1
.ENDS

.SUBCKT XNOR2_X1 A B Z
X1 A B Z_int XOR2_X1
X2 Z_int Z INV_X1
.ENDS

.SUBCKT BUF_X1 A Z
X1 A Z_bar INV_X1
X2 Z_bar Z INV_X1
.ENDS

.SUBCKT OAI21_X1 A B C Z
X1 A B C Z_bar AOI21_X1
X2 Z_bar Z INV_X1
.ENDS

.SUBCKT AOI21_X1 A B C Z
M1 Z A int1 1 PMOS W=0.4u L=0.05u
M2 int1 B 1 1 PMOS W=0.4u L=0.05u
M3 Z C 1 1 PMOS W=0.4u L=0.05u
M4 Z A 0 0 NMOS W=0.2u L=0.05u
M5 Z B 0 0 NMOS W=0.2u L=0.05u
M6 Z C 0 0 NMOS W=0.2u L=0.05u
.ENDS

.SUBCKT NAND3_X1 A1 A2 A3 Z
X1 A1 A2 int1 AND2_X1
X2 int1 A3 Z NAND2_X1
.ENDS

.SUBCKT AND3_X1 A1 A2 A3 Z
X1 A1 A2 A3 Z_bar NAND3_X1
X2 Z_bar Z INV_X1
.ENDS

.SUBCKT NOR3_X1 A1 A2 A3 Z
X1 A1 A2 int1 OR2_X1
X2 int1 A3 Z NOR2_X1
.ENDS

.SUBCKT OR3_X1 A1 A2 A3 Z
X1 A1 A2 A3 Z_bar NOR3_X1
X2 Z_bar Z INV_X1
.ENDS

.SUBCKT NAND4_X1 A1 A2 A3 A4 Z
X1 A1 A2 A3 int1 AND3_X1
X2 int1 A4 Z NAND2_X1
.ENDS

.SUBCKT AND4_X1 A1 A2 A3 A4 Z
X1 A1 A2 A3 A4 Z_bar NAND4_X1
X2 Z_bar Z INV_X1
.ENDS

.SUBCKT NOR4_X1 A1 A2 A3 A4 Z
X1 A1 A2 A3 int1 OR3_X1
X2 int1 A4 Z NOR2_X1
.ENDS

.SUBCKT OR4_X1 A1 A2 A3 A4 Z
X1 A1 A2 A3 A4 Z_bar NOR4_X1
X2 Z_bar Z INV_X1
.ENDS

.SUBCKT AOI22_X1 A B C D Z
X1 A B int1 AND2_X1
X2 C D int2 AND2_X1
X3 int1 int2 Z NOR2_X1
.ENDS

.SUBCKT OAI22_X1 A B C D Z
X1 A B int1 OR2_X1
X2 C D int2 OR2_X1
X3 int1 int2 Z NAND2_X1
.ENDS

.SUBCKT AOI211_X1 A B C D Z
X1 A B int1 AND2_X1
X2 int1 C D Z NOR3_X1
.ENDS

.SUBCKT OAI211_X1 A B C D Z
X1 A B int1 OR2_X1
X2 int1 C D Z NAND3_X1
.ENDS

.SUBCKT OAI33_X1 A B C D E F Z
X1 A B C int1 OR3_X1
X2 D E F int2 OR3_X1
X3 int1 int2 Z NAND2_X1
.ENDS

.SUBCKT AOI33_X1 A B C D E F Z
X1 A B C int1 AND3_X1
X2 D E F int2 AND3_X1
X3 int1 int2 Z NOR2_X1
.ENDS

.SUBCKT MUX2_X1 A B S Z
X1 S S_bar INV_X1
X2 A S_bar int1 AND2_X1
X3 B S int2 AND2_X1
X4 int1 int2 Z OR2_X1
.ENDS

.SUBCKT DFF_X1 D C Q QN
X1 D Q_int INV_X1
X2 Q_int Q INV_X1
X3 Q_int QN INV_X1
.ENDS

.SUBCKT DFFR_X1 D C RN Q QN
X1 D Q_int INV_X1
X2 Q_int Q INV_X1
X3 Q_int QN INV_X1
.ENDS

.SUBCKT DFFS_X1 C D Q QN SN
X1 D Q_int INV_X1
X2 Q_int Q INV_X1
X3 Q_int QN INV_X1
.ENDS

.SUBCKT DFFRS_X1 C D Q QN RN SN
X1 D Q_int INV_X1
X2 Q_int Q INV_X1
X3 Q_int QN INV_X1
.ENDS

* Provide VDD power source explicitly
Vvdd 1 0 1.8

* Auto-extracted Inputs:
V_CK CK 0 1.8
V_D D 0 0.0
V_CK CK 0 1.8
V_g18 g18 0 0.0
V_g27 g27 0 1.8
V_g109 g109 0 0.0
V_g741 g741 0 1.8
V_g742 g742 0 0.0
V_g743 g743 0 1.8
V_g744 g744 0 0.0
V_g872 g872 0 1.8
V_g873 g873 0 0.0
V_g877 g877 0 1.8
V_g881 g881 0 0.0
V_g1712 g1712 0 1.8
V_g1960 g1960 0 0.0
V_g1961 g1961 0 1.8
V_g1696 g1696 0 0.0
V_g750 g750 0 1.8
V_g85 g85 0 0.0
V_g42 g42 0 1.8
V_g1700 g1700 0 0.0
V_g102 g102 0 1.8
V_g104 g104 0 0.0
V_g101 g101 0 1.8
V_g29 g29 0 0.0
V_g28 g28 0 1.8
V_g103 g103 0 0.0
V_g83 g83 0 1.8
V_g23 g23 0 0.0
V_g87 g87 0 1.8
V_g922 g922 0 0.0
V_g892 g892 0 1.8
V_g84 g84 0 0.0
V_g919 g919 0 1.8
V_g1182 g1182 0 0.0
V_g925 g925 0 1.8
V_g48 g48 0 0.0
V_g895 g895 0 1.8
V_g889 g889 0 0.0
V_g1185 g1185 0 1.8
V_g41 g41 0 0.0
V_g43 g43 0 1.8
V_g99 g99 0 0.0
V_g1173 g1173 0 1.8
V_g1203 g1203 0 0.0
V_g1188 g1188 0 1.8
V_g1197 g1197 0 0.0
V_g46 g46 0 1.8
V_g31 g31 0 0.0
V_g45 g45 0 1.8
V_g92 g92 0 0.0
V_g89 g89 0 1.8
V_g898 g898 0 0.0
V_g91 g91 0 1.8
V_g93 g93 0 0.0
V_g913 g913 0 1.8
V_g82 g82 0 0.0
V_g88 g88 0 1.8
V_g1194 g1194 0 0.0
V_g47 g47 0 1.8
V_g96 g96 0 0.0
V_g910 g910 0 1.8
V_g95 g95 0 0.0
V_g904 g904 0 1.8
V_g1176 g1176 0 0.0
V_g901 g901 0 1.8
V_g44 g44 0 0.0
V_g916 g916 0 1.8
V_g100 g100 0 0.0
V_g886 g886 0 1.8
V_g30 g30 0 0.0
V_g86 g86 0 1.8
V_g1170 g1170 0 0.0
V_g1200 g1200 0 1.8
V_g1191 g1191 0 0.0
V_g907 g907 0 1.8
V_g90 g90 0 0.0
V_g94 g94 0 1.8
V_g1179 g1179 0 0.0

* Yosys Generated Netlist:
* SPICE netlist generated by Yosys 0.62 (git sha1 7326bb7d6641500ecb285c291a54a662cb1e76cf, clang++ 17.0.0 -fPIC -O3)

.SUBCKT dff CK Q D
X0 CK D Q 1 DFF_X1
.ENDS dff

X0 g1781 1 INV_X1
X1 g1684 2 INV_X1
X2 g691 3 INV_X1
X3 g109 4 INV_X1
X4 g4317 5 INV_X1
X5 g4296 6 INV_X1
X6 g1235 7 INV_X1
X7 g1887 8 INV_X1
X8 g4287 9 INV_X1
X9 g18 10 INV_X1
X10 g1615 11 INV_X1
X11 g1927 12 INV_X1
X12 g1861 13 INV_X1
X13 g4310 14 INV_X1
X14 g1932 15 INV_X1
X15 g1672 16 INV_X1
X16 g709 17 INV_X1
X17 g4322 18 INV_X1
X18 g1678 19 INV_X1
X19 g1231 20 INV_X1
X20 g1630 21 INV_X1
X21 g312 22 INV_X1
X22 g1552 23 INV_X1
X23 g426 24 INV_X1
X24 g48 25 INV_X1
X25 g1675 26 INV_X1
X26 g727 27 INV_X1
X27 g673 28 INV_X1
X28 g1499 29 INV_X1
X29 g4268 30 INV_X1
X30 g401 31 INV_X1
X31 g3292 32 INV_X1
X32 g1571 33 INV_X1
X33 g1627 34 INV_X1
X34 g406 35 INV_X1
X35 g1857 36 INV_X1
X36 g664 37 INV_X1
X37 g1896 38 INV_X1
X38 g201 39 INV_X1
X39 I6616 40 INV_X1
X40 g1687 41 INV_X1
X41 g1218 42 INV_X1
X42 g1806 43 INV_X1
X43 g682 44 INV_X1
X44 g1914 45 INV_X1
X45 g591 46 INV_X1
X46 g1905 47 INV_X1
X47 g1110 48 INV_X1
X48 g1624 49 INV_X1
X49 g1415 50 INV_X1
X50 g2779 51 INV_X1
X51 g1900 52 INV_X1
X52 g1407 53 INV_X1
X53 g1923 54 INV_X1
X54 g2593 55 INV_X1
X55 g1941 56 INV_X1
X56 g2173 57 INV_X1
X57 g4279 58 INV_X1
X58 g2639 59 INV_X1
X59 g1104 60 INV_X1
X60 g1639 61 INV_X1
X61 g1872 62 INV_X1
X62 g411 63 INV_X1
X63 g1713 64 INV_X1
X64 g1101 65 INV_X1
X65 g309 66 INV_X1
X66 g1878 67 INV_X1
X67 g1814 68 INV_X1
X68 g700 69 INV_X1
X69 g162 70 INV_X1
X70 g1696 71 INV_X1
X71 g718 72 INV_X1
X72 g686 73 INV_X1
X73 g1621 74 INV_X1
X74 g1107 75 INV_X1
X75 g2586 76 INV_X1
X76 g126 77 INV_X1
X77 g32 78 INV_X1
X78 g883 79 INV_X1
X79 g42 80 INV_X1
X80 g1822 81 INV_X1
X81 g599 82 INV_X1
X82 g611 83 INV_X1
X83 g46 84 INV_X1
X84 g43 85 INV_X1
X85 g1828 86 INV_X1
X86 g1206 87 INV_X1
X87 g1834 88 INV_X1
X88 g750 89 INV_X1
X89 g45 90 INV_X1
X90 g47 91 INV_X1
X91 g44 92 INV_X1
X92 I6474 93 INV_X1
X93 g877 94 INV_X1
X94 I6679 g5816 INV_X1
X95 g1700 g2864 INV_X1
X96 g23 g3327 INV_X1
X97 g876 95 INV_X1
X98 g114 96 INV_X1
X99 g41 g30 g31 g9451 OR3_X1
X100 25 g9451 97 NOR2_X1
X101 25 g9451 98 OR2_X1
X102 25 g41 99 NOR2_X1
X103 25 g41 100 OR2_X1
X104 25 g41 80 101 NOR3_X1
X105 25 g31 102 OR2_X1
X106 g30 g31 g48 103 MUX2_X1
X107 g41 91 103 104 OR3_X1
X108 g41 g46 91 103 105 NOR4_X1
X109 85 90 92 106 NOR3_X1
X110 101 105 106 107 AND3_X1
X111 85 g45 92 108 NOR3_X1
X112 g43 90 g44 109 NAND3_X1
X113 g41 g47 103 110 NOR3_X1
X114 g41 g46 g47 103 111 NOR4_X1
X115 g41 g46 g47 103 112 OR4_X1
X116 100 109 112 113 NOR3_X1
X117 99 108 111 114 NAND3_X1
X118 g43 90 g44 115 NOR3_X1
X119 85 g45 92 116 NAND3_X1
X120 100 112 116 117 NOR3_X1
X121 99 111 115 118 NAND3_X1
X122 107 113 117 119 NOR3_X1
X123 g41 g42 120 OR2_X1
X124 25 120 121 NOR2_X1
X125 25 120 122 OR2_X1
X126 105 115 121 123 AND3_X1
X127 101 105 108 124 AND3_X1
X128 101 105 108 125 NAND3_X1
X129 105 106 121 126 AND3_X1
X130 107 113 117 126 127 OR4_X1
X131 123 124 127 128 OR3_X1
X132 g43 g45 92 129 NOR3_X1
X133 99 111 129 130 AND3_X1
X134 g41 84 g47 103 131 NOR4_X1
X135 g46 110 132 NAND2_X1
X136 g43 90 92 133 NOR3_X1
X137 85 90 g44 134 NOR3_X1
X138 99 115 133 101 135 AOI22_X1
X139 99 108 134 101 136 AOI22_X1
X140 132 135 136 137 AOI21_X1
X141 108 121 138 NAND2_X1
X142 84 104 109 122 139 NOR4_X1
X143 130 139 140 OR2_X1
X144 102 137 140 141 OR3_X1
X145 101 105 115 142 AND3_X1
X146 102 137 140 142 143 OR4_X1
X147 128 143 144 OR2_X1
X148 105 108 121 145 AND3_X1
X149 g45 g44 146 NOR2_X1
X150 g43 146 147 NAND2_X1
X151 100 112 147 148 NOR3_X1
X152 128 143 145 148 149 NOR4_X1
X153 115 121 131 150 AND3_X1
X154 101 108 131 151 AND3_X1
X155 g956 150 151 g904 152 AOI22_X1
X156 g2651 101 131 133 153 NAND4_X1
X157 101 131 134 154 AND3_X1
X158 101 115 131 155 AND3_X1
X159 g892 154 155 g2654 156 AOI22_X1
X160 152 153 156 157 NAND3_X1
X161 80 100 112 147 158 NOR4_X1
X162 g293 g269 g42 159 MUX2_X1
X163 g1 158 159 130 160 AOI22_X1
X164 g1750 126 161 NAND2_X1
X165 112 116 122 162 NOR3_X1
X166 111 115 121 163 NAND3_X1
X167 117 163 g1598 80 g1574 164 OAI221_X1
X168 160 161 164 165 NAND3_X1
X169 g1321 123 124 g1176 g1200 145 166 AOI222_X1
X170 112 122 147 167 NOR3_X1
X171 g35 102 167 g9 142 g1346 168 AOI222_X1
X172 109 112 122 169 NOR3_X1
X173 108 111 121 170 NAND3_X1
X174 g1555 109 122 171 OR3_X1
X175 113 171 169 g1531 172 OAI211_X1
X176 g1727 107 173 NAND2_X1
X177 166 168 172 173 174 NAND4_X1
X178 157 165 174 175 OR3_X1
X179 149 175 176 NOR2_X1
X180 176 g10869 INV_X1
X181 97 176 g10459 NAND2_X1
X182 I5801 g766 g762 177 AND3_X1
X183 g770 177 178 AND2_X1
X184 g774 178 179 AND2_X1
X185 g778 179 180 AND2_X1
X186 g782 180 181 AND2_X1
X187 g786 181 182 AND2_X1
X188 g790 182 183 NAND2_X1
X189 4 g590 184 NOR2_X1
X190 4 g590 185 OR2_X1
X191 184 182 g790 186 OAI21_X1
X192 186 182 g790 g8567 AOI21_X1
X193 g213 g109 g7314 AND2_X1
X194 g109 g1160 g6302 AND2_X1
X195 g3373 g4183 187 AND2_X1
X196 g4184 187 188 AND2_X1
X197 g4185 188 189 AND2_X1
X198 g4186 189 190 AND2_X1
X199 g109 g745 g2639 191 AND3_X1
X200 191 189 g4186 192 OAI21_X1
X201 190 192 g7786 NOR2_X1
X202 g296 g272 g42 193 MUX2_X1
X203 g1753 126 130 193 194 AOI22_X1
X204 g1730 107 195 NAND2_X1
X205 117 163 g1601 80 g1577 196 OAI221_X1
X206 194 195 196 197 NAND3_X1
X207 g36 102 154 g895 158 g8 198 AOI222_X1
X208 g1534 169 199 NOR2_X1
X209 113 170 g1558 200 OAI21_X1
X210 g17 167 201 NAND2_X1
X211 198 201 200 199 202 OAI211_X1
X212 g1324 123 145 g1203 203 AOI22_X1
X213 g1179 124 142 g1351 204 AOI22_X1
X214 203 204 205 NAND2_X1
X215 g959 150 206 NAND2_X1
X216 g2772 101 131 133 207 NAND4_X1
X217 g907 151 155 g2797 208 AOI22_X1
X218 206 207 208 209 NAND3_X1
X219 197 202 205 209 210 OR4_X1
X220 149 210 g10870 OR2_X1
X221 g109 g10870 211 AND2_X1
X222 g109 149 210 212 OAI21_X1
X223 119 125 213 NAND2_X1
X224 g947 155 214 NAND2_X1
X225 g1589 101 111 115 215 NAND4_X1
X226 g1191 124 151 g919 216 AOI22_X1
X227 214 215 216 217 AND3_X1
X228 g40 102 107 g1741 142 g1311 218 AOI222_X1
X229 101 111 129 219 AND3_X1
X230 g284 219 220 NAND2_X1
X231 80 100 109 112 221 NOR4_X1
X232 g1546 221 222 NAND2_X1
X233 218 220 222 223 AND3_X1
X234 217 223 143 213 g10775 OAI211_X1
X235 g109 g10775 224 NAND2_X1
X236 g857 224 225 XOR2_X1
X237 128 141 148 226 NOR3_X1
X238 g299 g275 g42 227 MUX2_X1
X239 130 227 228 NAND2_X1
X240 113 138 g1561 169 g1537 229 OAI221_X1
X241 228 229 230 AND2_X1
X242 g1756 126 231 NAND2_X1
X243 117 163 g1604 80 g1580 232 OAI221_X1
X244 g1327 123 150 g962 151 g910 233 AOI222_X1
X245 g37 102 107 g1733 124 g1182 234 AOI222_X1
X246 g7 158 167 g16 235 AOI22_X1
X247 233 234 235 236 AND3_X1
X248 230 231 232 236 237 NAND4_X1
X249 226 237 238 NOR2_X1
X250 238 g10871 INV_X1
X251 g109 226 237 239 OAI21_X1
X252 g901 151 155 g2653 240 AOI22_X1
X253 g953 150 154 g889 241 AOI22_X1
X254 240 241 242 NAND2_X1
X255 g1724 107 243 NAND2_X1
X256 g2650 101 131 133 244 NAND4_X1
X257 g46 108 110 121 245 AND4_X1
X258 g34 102 245 g925 246 AOI22_X1
X259 g290 g266 g42 247 MUX2_X1
X260 g12 167 247 130 248 AOI22_X1
X261 243 244 246 248 249 NAND4_X1
X262 g1173 124 145 g1197 250 AOI22_X1
X263 g1318 123 142 g1341 251 AOI22_X1
X264 250 251 252 NAND2_X1
X265 g1747 126 253 AND2_X1
X266 g1595 g42 254 NOR2_X1
X267 118 254 163 33 255 AOI211_X1
X268 g1528 108 121 256 AOI21_X1
X269 114 256 169 23 257 AOI211_X1
X270 g4 158 258 AND2_X1
X271 253 255 257 258 259 OR4_X1
X272 242 249 252 259 260 OR4_X1
X273 149 260 261 NOR2_X1
X274 261 g10868 INV_X1
X275 g109 149 260 262 OAI21_X1
X276 g833 262 263 XOR2_X1
X277 g861 g829 264 NOR2_X1
X278 g950 150 151 g898 265 AOI22_X1
X279 g2649 101 131 133 266 NAND4_X1
X280 g886 154 267 NAND2_X1
X281 265 266 267 268 NAND3_X1
X282 g287 g263 g42 269 MUX2_X1
X283 130 269 270 NAND2_X1
X284 g2652 155 271 NAND2_X1
X285 139 245 g922 102 g33 272 AOI221_X1
X286 g1592 112 116 122 273 OR4_X1
X287 g1567 80 274 NOR2_X1
X288 100 112 116 274 275 NOR4_X1
X289 g123 158 273 275 276 AOI22_X1
X290 270 271 272 276 277 NAND4_X1
X291 g1336 142 145 g1194 278 AOI22_X1
X292 g1314 123 124 g1170 279 AOI22_X1
X293 278 279 280 NAND2_X1
X294 113 138 g1549 169 g1524 281 OAI221_X1
X295 g1721 107 282 NAND2_X1
X296 g1744 126 167 g119 283 AOI22_X1
X297 281 282 283 284 NAND3_X1
X298 268 277 280 284 285 OR4_X1
X299 149 285 g10867 OR2_X1
X300 g109 149 285 286 OAI21_X1
X301 g861 g829 287 AND2_X1
X302 287 264 286 288 MUX2_X1
X303 g109 149 175 289 OAI21_X1
X304 g837 289 290 XOR2_X1
X305 g1738 107 126 g1762 291 AOI22_X1
X306 g1333 123 155 g944 292 AOI22_X1
X307 g1188 124 293 NAND2_X1
X308 g1586 101 111 115 294 AND4_X1
X309 294 151 g916 295 AOI21_X1
X310 139 219 g281 296 AOI21_X1
X311 291 293 296 297 AND3_X1
X312 g39 102 142 g1308 298 AOI22_X1
X313 g968 150 221 g1543 299 AOI22_X1
X314 292 295 298 299 300 AND4_X1
X315 144 297 300 301 AND3_X1
X316 301 g10774 INV_X1
X317 g109 g10774 302 NAND2_X1
X318 g853 302 303 XOR2_X1
X319 g302 g278 g42 304 MUX2_X1
X320 130 304 305 NAND2_X1
X321 117 162 g1583 g1607 g42 306 OAI221_X1
X322 113 138 g1564 169 g1540 307 OAI221_X1
X323 g38 102 124 g1185 126 g1759 308 AOI222_X1
X324 g965 150 151 g913 g1330 123 309 AOI222_X1
X325 305 307 308 309 310 AND4_X1
X326 306 310 128 141 g10872 OAI211_X1
X327 g10872 311 INV_X1
X328 g109 g10872 312 NAND2_X1
X329 g849 312 313 XOR2_X1
X330 g845 239 314 XOR2_X1
X331 288 303 313 314 315 NAND4_X1
X332 g841 212 316 XOR2_X1
X333 225 263 290 316 317 NAND4_X1
X334 g845 g833 g841 g857 318 NOR4_X1
X335 264 318 319 NAND2_X1
X336 g837 g853 g849 319 320 NOR4_X1
X337 320 317 315 321 OAI21_X1
X338 g374 g369 322 NAND2_X1
X339 g374 g369 g378 321 323 AND4_X1
X340 g374 g369 g378 g382 324 NAND4_X1
X341 g382 323 325 NAND2_X1
X342 g421 g396 g426 g401 326 OR4_X1
X343 g440 g452 326 327 NOR3_X1
X344 g416 g406 g448 g391 328 OR4_X1
X345 g386 g411 g444 328 329 NOR4_X1
X346 g435 g431 327 329 330 AOI211_X1
X347 330 g431 g435 331 AOI21_X1
X348 g396 g324 332 XOR2_X1
X349 g426 g315 333 XOR2_X1
X350 g416 66 g330 35 334 AOI22_X1
X351 334 g327 31 g421 22 335 OAI221_X1
X352 g391 g321 336 XNOR2_X1
X353 g386 g318 337 XOR2_X1
X354 337 63 g333 g421 22 338 AOI221_X1
X355 g333 63 66 g416 g330 35 339 OAI222_X1
X356 339 g327 31 340 AOI21_X1
X357 336 338 340 341 NAND3_X1
X358 332 333 335 341 342 NOR4_X1
X359 g305 331 343 XNOR2_X1
X360 325 342 343 g10788 AOI21_X1
X361 25 85 146 344 NAND3_X1
X362 g41 80 344 345 NOR3_X1
X363 111 345 346 AND2_X1
X364 g10774 346 347 OR2_X1
X365 g1032 347 348 NAND2_X1
X366 g1027 348 349 XNOR2_X1
X367 g1240 g1235 g1284 g1280 350 NOR4_X1
X368 g1275 g1265 g1296 g1245 351 NOR4_X1
X369 g1270 g1255 g1292 352 NOR3_X1
X370 g1260 g1300 g1250 g1304 353 NOR4_X1
X371 350 351 352 353 354 NAND4_X1
X372 g1284 g1280 355 XNOR2_X1
X373 g1223 g1218 356 AND2_X1
X374 g1231 g1227 356 357 AND3_X1
X375 354 355 357 358 NAND3_X1
X376 358 357 349 359 OAI21_X1
X377 359 358 349 360 MUX2_X1
X378 g1245 g999 361 XNOR2_X1
X379 g1260 g1019 362 XOR2_X1
X380 g1007 g1255 363 XOR2_X1
X381 g1240 g1003 364 XNOR2_X1
X382 g1235 g991 365 XNOR2_X1
X383 g1265 g1015 366 XNOR2_X1
X384 g1270 g1023 367 XNOR2_X1
X385 g1011 g1250 368 XNOR2_X1
X386 g995 g1275 369 XNOR2_X1
X387 361 365 367 370 NAND3_X1
X388 364 366 368 369 371 NAND4_X1
X389 362 363 370 371 372 NOR4_X1
X390 g1703 g1696 373 NOR2_X1
X391 g1703 g1696 374 OR2_X1
X392 g1713 374 375 NOR2_X1
X393 g1289 375 376 AND2_X1
X394 g1289 375 377 NAND2_X1
X395 g1227 356 376 378 NAND3_X1
X396 20 378 372 360 g11561 AOI211_X1
X397 68 g1840 379 NOR2_X1
X398 g1834 379 380 NAND2_X1
X399 81 g1828 g1834 379 381 AOI22_X1
X400 g1845 13 382 NAND2_X1
X401 g1864 382 383 OR2_X1
X402 g1868 383 384 NOR2_X1
X403 g1834 379 384 385 NAND3_X1
X404 g1822 g1828 386 NOR2_X1
X405 384 g1828 g1822 387 OAI21_X1
X406 385 387 36 388 OAI21_X1
X407 g1814 81 389 NAND2_X1
X408 g1814 g1822 86 390 NOR3_X1
X409 g1814 81 g1828 391 NOR3_X1
X410 390 391 392 NOR2_X1
X411 62 389 392 393 NAND3_X1
X412 g1882 g1891 393 394 NOR3_X1
X413 52 394 395 NAND2_X1
X414 g1909 g1918 395 396 OR3_X1
X415 g1927 g1936 396 397 NOR3_X1
X416 397 398 INV_X1
X417 62 389 392 399 AOI21_X1
X418 399 400 INV_X1
X419 g1882 399 401 NAND2_X1
X420 g1882 g1891 399 402 AND3_X1
X421 g1900 402 403 AND2_X1
X422 403 404 INV_X1
X423 g1909 403 405 NAND2_X1
X424 g1909 g1918 403 406 NAND3_X1
X425 12 406 407 NOR2_X1
X426 407 408 INV_X1
X427 g1936 407 409 NAND2_X1
X428 g1945 409 410 AND2_X1
X429 388 397 g1945 411 OAI21_X1
X430 411 409 g1945 412 AOI21_X1
X431 410 411 413 OR2_X1
X432 g1814 381 413 414 OAI21_X1
X433 68 g1822 415 NAND2_X1
X434 68 g1822 412 416 NAND3_X1
X435 10 414 416 g9825 AOI21_X1
X436 g109 g243 g7305 AND2_X1
X437 g1703 71 417 NOR2_X1
X438 g1703 71 418 OR2_X1
X439 g1651 418 g11182 AND2_X1
X440 g82 g2868 g8340 OR2_X1
X441 g109 g1504 g7329 AND2_X1
X442 4 79 g882 419 NOR3_X1
X443 419 g881 g109 g6392 AOI21_X1
X444 4 96 g6392 420 AOI21_X1
X445 g2651 420 g8571 AND2_X1
X446 g1110 g1107 421 NOR2_X1
X447 g1104 g1101 421 422 AND3_X1
X448 10 g1121 422 423 OAI21_X1
X449 423 422 g1121 424 AOI21_X1
X450 424 g186 g18 425 AOI21_X1
X451 g1428 425 426 XOR2_X1
X452 4 426 g8993 NOR2_X1
X453 g1357 374 g6330 AND2_X1
X454 g109 g1129 g6308 AND2_X1
X455 g109 g1377 g7313 AND2_X1
X456 g109 g1380 g7315 AND2_X1
X457 g213 g18 427 NAND2_X1
X458 g1110 75 428 NOR2_X1
X459 48 g1107 429 NAND2_X1
X460 g1104 65 429 430 NOR3_X1
X461 g1129 430 431 XNOR2_X1
X462 427 431 g18 432 OAI21_X1
X463 g1432 432 433 XNOR2_X1
X464 4 433 g8991 NOR2_X1
X465 g82 g2877 g8349 OR2_X1
X466 4 29 g7328 NOR2_X1
X467 g109 g1394 g1393 434 OAI21_X1
X468 g115 434 g7809 NOR2_X1
X469 68 g1834 386 435 OAI21_X1
X470 435 g3524 INV_X1
X471 g1849 435 g5671 AND2_X1
X472 g4187 190 436 AND2_X1
X473 g4188 436 437 AND2_X1
X474 g4189 437 438 AND2_X1
X475 g4190 438 439 XOR2_X1
X476 191 439 g8568 AND2_X1
X477 g1814 g1822 g1828 g1834 440 NOR4_X1
X478 68 88 386 441 NAND3_X1
X479 412 440 442 NOR2_X1
X480 g1814 g1822 g1828 443 NAND3_X1
X481 392 443 444 NAND2_X1
X482 440 444 412 445 AOI21_X1
X483 86 445 446 XNOR2_X1
X484 10 446 g9827 NOR2_X1
X485 g109 g237 g7307 AND2_X1
X486 g18 g231 447 NAND2_X1
X487 g1110 75 448 NAND2_X1
X488 g1104 g1101 448 449 NOR3_X1
X489 g1141 449 450 XNOR2_X1
X490 447 450 g18 451 OAI21_X1
X491 g1444 451 452 XNOR2_X1
X492 4 452 g8988 NOR2_X1
X493 g1336 g11561 453 AND2_X1
X494 g1341 453 454 NAND2_X1
X495 4 g1212 455 NOR2_X1
X496 4 g1212 456 OR2_X1
X497 4 87 g1361 457 NOR3_X1
X498 457 I5830 g109 g6648 AOI21_X1
X499 456 g6648 458 AND2_X1
X500 g1341 453 459 XNOR2_X1
X501 458 459 g11655 NOR2_X1
X502 g109 g1400 g7325 AND2_X1
X503 g2652 g2653 g10788 460 NAND3_X1
X504 4 g2480 461 OR2_X1
X505 g109 g878 95 462 NAND3_X1
X506 g109 g757 463 NAND2_X1
X507 461 462 463 464 AND3_X1
X508 g2653 g10788 g2652 465 AOI21_X1
X509 464 465 466 NOR2_X1
X510 460 466 g11471 AND2_X1
X511 g109 g143 g7747 AND2_X1
X512 g109 g881 g10868 467 NAND3_X1
X513 467 462 238 468 OAI21_X1
X514 g10869 419 469 NAND2_X1
X515 469 286 94 470 OAI21_X1
X516 468 470 g757 211 g10628 AOI211_X1
X517 g2593 g2579 g2586 471 NAND3_X1
X518 471 472 INV_X1
X519 g3292 472 473 NAND2_X1
X520 g2579 321 473 474 AND3_X1
X521 4 g2454 475 OR2_X1
X522 g2579 321 476 NOR2_X1
X523 474 475 476 g11466 NOR3_X1
X524 g82 g2840 g8328 OR2_X1
X525 g109 g1157 g6303 AND2_X1
X526 191 187 g4184 477 OAI21_X1
X527 188 477 g6802 NOR2_X1
X528 g109 g1424 g7331 AND2_X1
X529 g109 g1145 g6312 AND2_X1
X530 g2586 474 478 XNOR2_X1
X531 475 478 g11467 NOR2_X1
X532 g109 g1368 g7309 AND2_X1
X533 78 102 479 NAND2_X1
X534 238 g10774 480 XNOR2_X1
X535 g10775 g10872 481 XNOR2_X1
X536 479 481 482 XNOR2_X1
X537 480 482 483 XNOR2_X1
X538 261 g10867 484 XNOR2_X1
X539 176 g10870 485 XNOR2_X1
X540 484 485 486 XNOR2_X1
X541 483 486 g11397 XOR2_X1
X542 98 g11397 g10801 OR2_X1
X543 321 324 487 AND2_X1
X544 487 488 INV_X1
X545 g369 487 489 NAND2_X1
X546 489 321 g369 490 OAI21_X1
X547 461 490 g11439 NOR2_X1
X548 g109 g1419 g7333 AND2_X1
X549 42 357 377 491 NOR3_X1
X550 455 491 g1223 492 OAI21_X1
X551 492 491 g1223 g8277 AOI21_X1
X552 g109 g1365 g7319 AND2_X1
X553 g1499 g1453 493 XNOR2_X1
X554 g1508 g1494 494 XNOR2_X1
X555 g109 493 494 495 OAI21_X1
X556 495 494 493 g7326 AOI21_X1
X557 g1346 g1341 453 496 NAND3_X1
X558 g1351 g1346 g1341 g1336 g4114 AND4_X1
X559 g1351 496 497 XOR2_X1
X560 458 497 g11657 NOR2_X1
X561 g382 323 498 NOR2_X1
X562 461 498 g11442 NOR2_X1
X563 g148 g143 499 NOR2_X1
X564 g158 g139 g153 g131 500 NOR4_X1
X565 g18 g115 501 AND2_X1
X566 g18 g115 502 NAND2_X1
X567 g170 g166 g182 70 503 NAND4_X1
X568 g178 g174 504 NAND2_X1
X569 g135 g127 503 505 NOR3_X1
X570 499 500 505 506 NAND3_X1
X571 g119 502 504 506 507 NOR4_X1
X572 g109 g123 507 508 OAI21_X1
X573 508 g8272 INV_X1
X574 g1771 g1766 509 NAND2_X1
X575 418 509 510 NOR2_X1
X576 g1781 g1776 511 NAND2_X1
X577 418 509 511 512 NOR3_X1
X578 g1786 512 513 AND2_X1
X579 64 512 g1786 514 OAI21_X1
X580 513 514 g7814 NOR2_X1
X581 g18 g219 515 NAND2_X1
X582 515 74 g18 516 OAI21_X1
X583 g1482 516 517 XNOR2_X1
X584 4 517 g8444 NOR2_X1
X585 I5801 185 g6797 NOR2_X1
X586 447 g18 5 g7107 OAI21_X1
X587 g127 g7107 518 XNOR2_X1
X588 4 518 g8422 NOR2_X1
X589 g1840 384 519 NAND2_X1
X590 g1840 88 384 520 NAND3_X1
X591 520 521 INV_X1
X592 g1834 519 412 385 522 OAI211_X1
X593 10 520 522 g9895 AOI21_X1
X594 g109 g1453 g7327 AND2_X1
X595 g109 g1383 g7317 AND2_X1
X596 g770 177 523 NOR2_X1
X597 178 185 523 g7288 NOR3_X1
X598 g197 g1386 524 XNOR2_X1
X599 g201 g1389 525 XNOR2_X1
X600 524 525 526 XNOR2_X1
X601 g219 g1362 527 NOR2_X1
X602 g207 g186 g225 g1386 528 NOR4_X1
X603 g243 g1377 g231 g1371 529 NOR4_X1
X604 527 528 529 530 NAND3_X1
X605 g213 g1380 g237 g1368 531 OR4_X1
X606 g1365 g1383 530 531 532 NOR4_X1
X607 g1400 g248 g1397 g1389 533 OR4_X1
X608 g1374 g192 g197 533 534 NOR4_X1
X609 39 532 534 535 NAND3_X1
X610 4 526 535 g7304 AOI21_X1
X611 g109 g12 501 536 OAI21_X1
X612 536 g7337 INV_X1
X613 4 48 g1216 g6817 NOR3_X1
X614 g109 g1397 g7323 AND2_X1
X615 g2772 420 g8572 AND2_X1
X616 g1645 418 g11184 AND2_X1
X617 g82 g2814 g8316 OR2_X1
X618 g109 g1389 g6837 AND2_X1
X619 89 g2994 537 NOR2_X1
X620 89 g2994 538 OR2_X1
X621 g2809 538 g7777 AND2_X1
X622 191 436 g4188 539 OAI21_X1
X623 437 539 g8274 NOR2_X1
X624 g1346 454 540 XOR2_X1
X625 458 540 g11656 NOR2_X1
X626 g605 g599 541 NOR2_X1
X627 46 g611 541 542 OAI21_X1
X628 542 g4117 INV_X1
X629 g630 542 g5654 AND2_X1
X630 g109 g1133 g6309 AND2_X1
X631 4 39 g6825 NOR2_X1
X632 532 534 g6825 g7320 AND3_X1
X633 g1394 g7320 g7321 AND2_X1
X634 456 378 20 g8279 AOI21_X1
X635 g109 g742 g741 g5658 AND3_X1
X636 g3292 321 472 543 AOI21_X1
X637 475 543 g11469 NOR2_X1
X638 g1791 g1796 513 544 AND3_X1
X639 g1791 g1786 545 NAND2_X1
X640 64 544 g1801 546 OAI21_X1
X641 g1801 544 547 NAND2_X1
X642 546 544 g1801 g8450 AOI21_X1
X643 g1642 418 g11183 AND2_X1
X644 g109 g1374 g6835 AND2_X1
X645 98 g10870 g10461 OR2_X1
X646 184 180 g782 548 OAI21_X1
X647 181 548 g8273 NOR2_X1
X648 g18 g1828 413 549 OAI21_X1
X649 549 413 81 g9826 AOI21_X1
X650 g109 g9 501 550 OAI21_X1
X651 550 g7336 INV_X1
X652 447 34 g18 551 OAI21_X1
X653 g1474 551 552 XNOR2_X1
X654 4 552 g8442 NOR2_X1
X655 g109 g192 g7322 AND2_X1
X656 441 383 g1868 553 OAI21_X1
X657 g1864 382 554 NAND2_X1
X658 553 554 383 g7816 AOI21_X1
X659 97 301 g10377 NAND2_X1
X660 g109 g744 g743 g5659 AND3_X1
X661 g109 g1515 g7334 AND2_X1
X662 g2651 g2650 g2649 g2772 g4897 AND4_X1
X663 64 513 g1791 555 OAI21_X1
X664 555 513 g1791 g8080 AOI21_X1
X665 4 60 g1216 g6815 NOR3_X1
X666 g18 g225 556 NAND2_X1
X667 556 14 g18 g7103 OAI21_X1
X668 g170 g7103 557 XNOR2_X1
X669 4 557 g8423 NOR2_X1
X670 g1444 g1424 g1419 50 558 AND4_X1
X671 g1428 g1432 558 559 NAND3_X1
X672 g12 502 560 OR2_X1
X673 g1411 g1403 561 NOR2_X1
X674 g1448 g1520 561 562 NAND3_X1
X675 53 g1515 g1436 g1440 563 NAND4_X1
X676 559 560 562 563 564 NOR4_X1
X677 g109 564 g1 565 OAI21_X1
X678 565 g8078 INV_X1
X679 g109 g207 g7316 AND2_X1
X680 g82 g2829 g8323 OR2_X1
X681 g2855 538 g7783 AND2_X1
X682 g2654 g2652 g2653 566 AND3_X1
X683 g2797 g10788 566 567 AOI21_X1
X684 g2797 566 g4637 AND2_X1
X685 464 567 g4637 g10788 g11473 AOI211_X1
X686 g109 g178 g7749 AND2_X1
X687 97 261 g10457 NAND2_X1
X688 g109 g1137 g6310 AND2_X1
X689 g82 g2821 g8318 OR2_X1
X690 51 g643 568 OR2_X1
X691 g650 568 g646 569 OAI21_X1
X692 g646 g650 568 570 OR3_X1
X693 g591 g605 g599 g611 571 NOR4_X1
X694 46 83 541 572 NAND3_X1
X695 g654 570 573 NOR2_X1
X696 g654 570 574 OR2_X1
X697 572 574 575 NAND2_X1
X698 575 570 569 g8066 AOI21_X1
X699 4 65 g1216 g6814 NOR3_X1
X700 88 379 386 576 AND3_X1
X701 384 576 577 NAND2_X1
X702 g1950 521 578 NAND2_X1
X703 g1840 578 579 NAND2_X1
X704 10 577 579 g8694 AOI21_X1
X705 g109 g148 g7748 AND2_X1
X706 191 437 g4189 580 OAI21_X1
X707 438 580 g8437 NOR2_X1
X708 98 g10867 g10455 OR2_X1
X709 g109 g186 g7318 AND2_X1
X710 g632 542 g5656 AND2_X1
X711 g617 573 581 NAND2_X1
X712 46 g617 582 NOR2_X1
X713 g611 582 583 NAND2_X1
X714 583 584 INV_X1
X715 541 574 585 OR2_X1
X716 585 586 INV_X1
X717 573 584 586 g2181 587 AOI22_X1
X718 587 588 INV_X1
X719 g605 82 589 NAND2_X1
X720 g591 589 590 NOR2_X1
X721 g591 g605 82 591 NOR3_X1
X722 590 591 592 NOR2_X1
X723 592 g599 46 593 OAI21_X1
X724 g658 593 594 OR2_X1
X725 g677 g668 594 595 NOR3_X1
X726 73 595 596 NAND2_X1
X727 g695 596 597 OR2_X1
X728 g713 g704 597 598 OR3_X1
X729 g722 598 599 NOR2_X1
X730 g658 g668 593 600 AND3_X1
X731 g677 600 601 AND2_X1
X732 g686 601 602 AND2_X1
X733 g695 602 603 NAND2_X1
X734 g704 g695 602 604 AND3_X1
X735 604 605 INV_X1
X736 g713 604 606 AND2_X1
X737 g722 606 607 NAND2_X1
X738 g731 607 608 NAND2_X1
X739 588 608 599 g731 609 OAI211_X1
X740 573 584 609 57 610 OAI211_X1
X741 83 g617 573 611 NAND3_X1
X742 611 612 INV_X1
X743 g611 581 610 613 NAND3_X1
X744 10 611 613 g9930 AOI21_X1
X745 g109 g1153 g6304 AND2_X1
X746 g18 g237 614 NAND2_X1
X747 614 18 g18 g7110 OAI21_X1
X748 g131 g7110 615 XNOR2_X1
X749 4 615 g8421 NOR2_X1
X750 184 178 g774 616 OAI21_X1
X751 179 616 g7785 NOR2_X1
X752 g2654 460 617 XOR2_X1
X753 464 617 g11472 NOR2_X1
X754 g109 g1121 g6306 AND2_X1
X755 g1512 g192 g18 618 MUX2_X1
X756 g1458 618 619 XNOR2_X1
X757 4 619 g8438 NOR2_X1
X758 515 g18 6 g7098 OAI21_X1
X759 g174 g7098 620 XNOR2_X1
X760 4 620 g8424 NOR2_X1
X761 g1771 g1766 417 621 AOI21_X1
X762 g1713 510 621 g7811 NOR3_X1
X763 4 53 g7330 NOR2_X1
X764 g109 g225 g7311 AND2_X1
X765 184 179 g778 622 OAI21_X1
X766 180 622 g8076 NOR2_X1
X767 g2840 538 g7781 AND2_X1
X768 g109 g219 g7312 AND2_X1
X769 g109 g197 g6836 AND2_X1
X770 g4335 g192 g18 g7119 MUX2_X1
X771 g166 g7119 623 XNOR2_X1
X772 4 623 g8418 NOR2_X1
X773 184 181 g786 624 OAI21_X1
X774 182 624 g8436 NOR2_X1
X775 427 11 g18 625 OAI21_X1
X776 g1486 625 626 XNOR2_X1
X777 4 626 g8445 NOR2_X1
X778 g82 g2847 g8331 OR2_X1
X779 g82 g2855 g8335 OR2_X1
X780 g1610 418 g6845 AND2_X1
X781 g109 g1125 g6307 AND2_X1
X782 g1104 65 448 627 NOR3_X1
X783 g1145 627 628 XNOR2_X1
X784 614 628 g18 629 OAI21_X1
X785 g1448 629 630 XNOR2_X1
X786 4 630 g8987 NOR2_X1
X787 g109 g119 501 631 OAI21_X1
X788 631 g7745 INV_X1
X789 g1636 g248 g18 632 MUX2_X1
X790 g1462 632 633 XNOR2_X1
X791 4 633 g8439 NOR2_X1
X792 43 547 634 XNOR2_X1
X793 g1713 634 g8573 NOR2_X1
X794 g2652 g10788 635 XNOR2_X1
X795 464 635 g11470 NOR2_X1
X796 g18 g207 636 NAND2_X1
X797 636 58 g18 g7089 OAI21_X1
X798 g158 g7089 637 XNOR2_X1
X799 4 637 g8426 NOR2_X1
X800 g2885 538 g7776 AND2_X1
X801 g4327 g243 g18 g7113 MUX2_X1
X802 g135 g7113 638 XNOR2_X1
X803 4 638 g8420 NOR2_X1
X804 g82 g2809 g8313 OR2_X1
X805 g1104 g1101 429 639 NOR3_X1
X806 g1125 639 640 XNOR2_X1
X807 636 640 g18 641 OAI21_X1
X808 g1403 641 642 XNOR2_X1
X809 4 642 g8992 NOR2_X1
X810 g1336 g11561 643 NOR2_X1
X811 453 458 643 g11654 NOR3_X1
X812 g1227 356 376 644 AOI21_X1
X813 455 378 g1231 645 OAI21_X1
X814 644 645 g8278 NOR2_X1
X815 97 311 g10465 NAND2_X1
X816 g109 g1117 g6299 AND2_X1
X817 191 188 g4185 646 OAI21_X1
X818 189 646 g7289 NOR2_X1
X819 g631 542 g5655 AND2_X1
X820 g1648 418 g11181 AND2_X1
X821 g109 g1149 g6305 AND2_X1
X822 g4268 g186 g18 g7082 MUX2_X1
X823 g153 g7082 647 XNOR2_X1
X824 4 647 g8427 NOR2_X1
X825 636 61 g18 648 OAI21_X1
X826 g1490 648 649 XNOR2_X1
X827 4 649 g8446 NOR2_X1
X828 64 g1776 510 650 OAI21_X1
X829 650 510 g1776 g7812 AOI21_X1
X830 g1959 g2864 g4089 OR2_X1
X831 g1696 g4089 g6842 NOR2_X1
X832 g109 I5830 g10870 651 NAND3_X1
X833 g1610 g1765 652 NAND2_X1
X834 93 224 312 g105 653 OAI22_X1
X835 g10871 457 654 NAND2_X1
X836 651 654 652 302 655 OAI211_X1
X837 653 655 656 NOR2_X1
X838 g10628 656 g11206 AND2_X1
X839 g109 g1362 g7306 AND2_X1
X840 g1618 g186 g18 657 MUX2_X1
X841 g1494 657 658 XNOR2_X1
X842 4 658 g8447 NOR2_X1
X843 g109 g248 g7324 AND2_X1
X844 g646 568 659 XOR2_X1
X845 575 659 g8065 NOR2_X1
X846 97 238 g10463 NAND2_X1
X847 g1104 g1101 428 660 NAND3_X1
X848 g1137 660 661 XOR2_X1
X849 556 661 g18 662 OAI21_X1
X850 g1440 662 663 XNOR2_X1
X851 4 663 g8989 NOR2_X1
X852 g635 542 g5657 AND2_X1
X853 83 541 582 664 AND3_X1
X854 g3038 612 665 NAND2_X1
X855 573 664 665 g617 666 AOI22_X1
X856 10 666 g8780 NOR2_X1
X857 g2885 g82 g8352 OR2_X1
X858 191 190 g4187 667 OAI21_X1
X859 436 667 g8077 NOR2_X1
X860 g109 g1166 g6300 AND2_X1
X861 g1645 g1642 g1648 g1651 668 NOR4_X1
X862 g10872 346 668 669 NOR3_X1
X863 669 668 I6367 670 AOI21_X1
X864 g201 670 10 671 MUX2_X1
X865 g1515 g1448 672 XOR2_X1
X866 g1419 g1415 673 XNOR2_X1
X867 672 673 674 XNOR2_X1
X868 671 674 675 XNOR2_X1
X869 4 675 g11594 NOR2_X1
X870 g1850 435 g5672 AND2_X1
X871 g378 322 676 XNOR2_X1
X872 g378 488 676 321 677 AOI22_X1
X873 461 677 g11441 NOR2_X1
X874 98 g10775 g10379 OR2_X1
X875 g2821 538 g7779 AND2_X1
X876 g1796 513 g1791 678 AOI21_X1
X877 g1713 544 678 g8280 NOR3_X1
X878 g2877 538 g7775 AND2_X1
X879 g1633 g243 g18 679 MUX2_X1
X880 g1466 679 680 XNOR2_X1
X881 4 680 g8440 NOR2_X1
X882 g148 g143 681 XNOR2_X1
X883 g153 g182 682 XNOR2_X1
X884 g109 681 682 683 OAI21_X1
X885 683 682 681 g7746 AOI21_X1
X886 46 g599 684 NAND2_X1
X887 609 589 583 685 AOI21_X1
X888 609 684 685 46 686 OAI22_X1
X889 g18 686 g9818 AND2_X1