* Nangila SPICE Auto-Synthesized Netlist
.SUBCKT INV_X1 A Z
M1 Z A 0 0 NMOS W=0.2u L=0.05u
M2 Z A 1 1 PMOS W=0.4u L=0.05u
.ENDS

.SUBCKT NAND2_X1 A1 A2 Z
M1 Z A1 1 1 PMOS W=0.4u L=0.05u
M2 Z A2 1 1 PMOS W=0.4u L=0.05u
M3 Z A1 int 0 NMOS W=0.2u L=0.05u
M4 int A2 0 0 NMOS W=0.2u L=0.05u
.ENDS

.SUBCKT AND2_X1 A1 A2 Z
X1 A1 A2 Z_bar NAND2_X1
X2 Z_bar Z INV_X1
.ENDS

.SUBCKT NOR2_X1 A1 A2 Z
M1 int1 A1 1 1 PMOS W=0.4u L=0.05u
M2 Z A2 int1 1 PMOS W=0.4u L=0.05u
M3 Z A1 0 0 NMOS W=0.2u L=0.05u
M4 Z A2 0 0 NMOS W=0.2u L=0.05u
.ENDS

.SUBCKT OR2_X1 A1 A2 Z
X1 A1 A2 Z_bar NOR2_X1
X2 Z_bar Z INV_X1
.ENDS

.SUBCKT XOR2_X1 A1 A2 Z
X1 A1 A2 int1 AND2_X1
X2 A1 A2 int2 NOR2_X1
X3 int1 int2 int3 NOR2_X1
X4 int3 Z INV_X1
.ENDS

.SUBCKT XNOR2_X1 A B Z
X1 A B Z_int XOR2_X1
X2 Z_int Z INV_X1
.ENDS

.SUBCKT BUF_X1 A Z
X1 A Z_bar INV_X1
X2 Z_bar Z INV_X1
.ENDS

.SUBCKT OAI21_X1 A B C Z
X1 A B C Z_bar AOI21_X1
X2 Z_bar Z INV_X1
.ENDS

.SUBCKT AOI21_X1 A B C Z
M1 Z A int1 1 PMOS W=0.4u L=0.05u
M2 int1 B 1 1 PMOS W=0.4u L=0.05u
M3 Z C 1 1 PMOS W=0.4u L=0.05u
M4 Z A 0 0 NMOS W=0.2u L=0.05u
M5 Z B 0 0 NMOS W=0.2u L=0.05u
M6 Z C 0 0 NMOS W=0.2u L=0.05u
.ENDS

.SUBCKT NAND3_X1 A1 A2 A3 Z
X1 A1 A2 int1 AND2_X1
X2 int1 A3 Z NAND2_X1
.ENDS

.SUBCKT AND3_X1 A1 A2 A3 Z
X1 A1 A2 A3 Z_bar NAND3_X1
X2 Z_bar Z INV_X1
.ENDS

.SUBCKT NOR3_X1 A1 A2 A3 Z
X1 A1 A2 int1 OR2_X1
X2 int1 A3 Z NOR2_X1
.ENDS

.SUBCKT OR3_X1 A1 A2 A3 Z
X1 A1 A2 A3 Z_bar NOR3_X1
X2 Z_bar Z INV_X1
.ENDS

.SUBCKT NAND4_X1 A1 A2 A3 A4 Z
X1 A1 A2 A3 int1 AND3_X1
X2 int1 A4 Z NAND2_X1
.ENDS

.SUBCKT AND4_X1 A1 A2 A3 A4 Z
X1 A1 A2 A3 A4 Z_bar NAND4_X1
X2 Z_bar Z INV_X1
.ENDS

.SUBCKT NOR4_X1 A1 A2 A3 A4 Z
X1 A1 A2 A3 int1 OR3_X1
X2 int1 A4 Z NOR2_X1
.ENDS

.SUBCKT OR4_X1 A1 A2 A3 A4 Z
X1 A1 A2 A3 A4 Z_bar NOR4_X1
X2 Z_bar Z INV_X1
.ENDS

.SUBCKT AOI22_X1 A B C D Z
X1 A B int1 AND2_X1
X2 C D int2 AND2_X1
X3 int1 int2 Z NOR2_X1
.ENDS

.SUBCKT OAI22_X1 A B C D Z
X1 A B int1 OR2_X1
X2 C D int2 OR2_X1
X3 int1 int2 Z NAND2_X1
.ENDS

.SUBCKT AOI211_X1 A B C D Z
X1 A B int1 AND2_X1
X2 int1 C D Z NOR3_X1
.ENDS

.SUBCKT OAI211_X1 A B C D Z
X1 A B int1 OR2_X1
X2 int1 C D Z NAND3_X1
.ENDS

.SUBCKT OAI33_X1 A B C D E F Z
X1 A B C int1 OR3_X1
X2 D E F int2 OR3_X1
X3 int1 int2 Z NAND2_X1
.ENDS

.SUBCKT AOI33_X1 A B C D E F Z
X1 A B C int1 AND3_X1
X2 D E F int2 AND3_X1
X3 int1 int2 Z NOR2_X1
.ENDS

.SUBCKT MUX2_X1 A B S Z
X1 S S_bar INV_X1
X2 A S_bar int1 AND2_X1
X3 B S int2 AND2_X1
X4 int1 int2 Z OR2_X1
.ENDS

.SUBCKT DFF_X1 D C Q QN
X1 D Q_int INV_X1
X2 Q_int Q INV_X1
X3 Q_int QN INV_X1
.ENDS

.SUBCKT DFFR_X1 D C RN Q QN
X1 D Q_int INV_X1
X2 Q_int Q INV_X1
X3 Q_int QN INV_X1
.ENDS

.SUBCKT DFFS_X1 C D Q QN SN
X1 D Q_int INV_X1
X2 Q_int Q INV_X1
X3 Q_int QN INV_X1
.ENDS

.SUBCKT DFFRS_X1 C D Q QN RN SN
X1 D Q_int INV_X1
X2 Q_int Q INV_X1
X3 Q_int QN INV_X1
.ENDS

* Provide VDD power source explicitly
Vvdd 1 0 1.8

* Auto-extracted Inputs:
V_CK CK 0 1.8
V_D D 0 0.0
V_CK CK 0 1.8
V_DATA_0_31 DATA_0_31 0 0.0
V_DATA_0_30 DATA_0_30 0 1.8
V_DATA_0_29 DATA_0_29 0 0.0
V_DATA_0_28 DATA_0_28 0 1.8
V_DATA_0_27 DATA_0_27 0 0.0
V_DATA_0_26 DATA_0_26 0 1.8
V_DATA_0_25 DATA_0_25 0 0.0
V_DATA_0_24 DATA_0_24 0 1.8
V_DATA_0_23 DATA_0_23 0 0.0
V_DATA_0_22 DATA_0_22 0 1.8
V_DATA_0_21 DATA_0_21 0 0.0
V_DATA_0_20 DATA_0_20 0 1.8
V_DATA_0_19 DATA_0_19 0 0.0
V_DATA_0_18 DATA_0_18 0 1.8
V_DATA_0_17 DATA_0_17 0 0.0
V_DATA_0_16 DATA_0_16 0 1.8
V_DATA_0_15 DATA_0_15 0 0.0
V_DATA_0_14 DATA_0_14 0 1.8
V_DATA_0_13 DATA_0_13 0 0.0
V_DATA_0_12 DATA_0_12 0 1.8
V_DATA_0_11 DATA_0_11 0 0.0
V_DATA_0_10 DATA_0_10 0 1.8
V_DATA_0_9 DATA_0_9 0 0.0
V_DATA_0_8 DATA_0_8 0 1.8
V_DATA_0_7 DATA_0_7 0 0.0
V_DATA_0_6 DATA_0_6 0 1.8
V_DATA_0_5 DATA_0_5 0 0.0
V_DATA_0_4 DATA_0_4 0 1.8
V_DATA_0_3 DATA_0_3 0 0.0
V_DATA_0_2 DATA_0_2 0 1.8
V_DATA_0_1 DATA_0_1 0 0.0
V_DATA_0_0 DATA_0_0 0 1.8
V_RESET RESET 0 0.0
V_TM1 TM1 0 1.8
V_TM0 TM0 0 0.0

* Yosys Generated Netlist:
* SPICE netlist generated by Yosys 0.62 (git sha1 7326bb7d6641500ecb285c291a54a662cb1e76cf, clang++ 17.0.0 -fPIC -O3)

.SUBCKT dff CK Q D
X0 CK D Q 1 DFF_X1
.ENDS dff

X0 TM1 1 INV_X1
X1 TM0 2 INV_X1
X2 RESET 3 INV_X1
X3 TM0 WX485 4 NAND2_X1
X4 TM1 WX773 5 XOR2_X1
X5 WX837 5 6 XNOR2_X1
X6 WX645 WX709 7 XOR2_X1
X7 6 7 8 XNOR2_X1
X8 4 8 DATA_9_31 XNOR2_X1
X9 TM0 WX487 9 NAND2_X1
X10 TM1 WX775 10 XOR2_X1
X11 WX839 10 11 XNOR2_X1
X12 WX647 WX711 12 XOR2_X1
X13 11 12 13 XNOR2_X1
X14 9 13 DATA_9_30 XNOR2_X1
X15 TM1 WX777 14 XOR2_X1
X16 WX841 14 15 XNOR2_X1
X17 WX649 WX713 16 XOR2_X1
X18 15 16 17 XNOR2_X1
X19 TM0 WX489 18 NAND2_X1
X20 17 18 DATA_9_29 XNOR2_X1
X21 TM0 WX491 19 NAND2_X1
X22 TM1 WX779 20 XOR2_X1
X23 WX843 20 21 XNOR2_X1
X24 WX651 WX715 22 XOR2_X1
X25 21 22 23 XNOR2_X1
X26 19 23 DATA_9_28 XNOR2_X1
X27 TM0 WX493 24 NAND2_X1
X28 TM1 WX781 25 XOR2_X1
X29 WX845 25 26 XNOR2_X1
X30 WX653 WX717 27 XOR2_X1
X31 26 27 28 XNOR2_X1
X32 24 28 DATA_9_27 XNOR2_X1
X33 TM1 WX783 29 XOR2_X1
X34 WX847 29 30 XNOR2_X1
X35 WX655 WX719 31 XOR2_X1
X36 30 31 32 XNOR2_X1
X37 TM0 WX495 33 NAND2_X1
X38 32 33 DATA_9_26 XNOR2_X1
X39 TM0 WX497 34 NAND2_X1
X40 TM1 WX785 35 XOR2_X1
X41 WX849 35 36 XNOR2_X1
X42 WX657 WX721 37 XOR2_X1
X43 36 37 38 XNOR2_X1
X44 34 38 DATA_9_25 XNOR2_X1
X45 TM0 WX499 39 NAND2_X1
X46 TM1 WX787 40 XOR2_X1
X47 WX851 40 41 XNOR2_X1
X48 WX659 WX723 42 XOR2_X1
X49 41 42 43 XNOR2_X1
X50 39 43 DATA_9_24 XNOR2_X1
X51 TM0 WX501 44 NAND2_X1
X52 TM1 WX789 45 XOR2_X1
X53 WX853 45 46 XNOR2_X1
X54 WX661 WX725 47 XOR2_X1
X55 46 47 48 XNOR2_X1
X56 44 48 DATA_9_23 XNOR2_X1
X57 TM1 WX791 49 XOR2_X1
X58 WX855 49 50 XNOR2_X1
X59 WX663 WX727 51 XOR2_X1
X60 50 51 52 XNOR2_X1
X61 TM0 WX503 53 NAND2_X1
X62 52 53 DATA_9_22 XNOR2_X1
X63 TM1 WX793 54 XOR2_X1
X64 WX857 54 55 XNOR2_X1
X65 WX665 WX729 56 XOR2_X1
X66 55 56 57 XNOR2_X1
X67 TM0 WX505 58 NAND2_X1
X68 57 58 DATA_9_21 XNOR2_X1
X69 TM0 WX507 59 NAND2_X1
X70 TM1 WX795 60 XOR2_X1
X71 WX859 60 61 XNOR2_X1
X72 WX667 WX731 62 XOR2_X1
X73 61 62 63 XNOR2_X1
X74 59 63 DATA_9_20 XNOR2_X1
X75 TM0 WX509 64 NAND2_X1
X76 TM1 WX797 65 XOR2_X1
X77 WX861 65 66 XNOR2_X1
X78 WX669 WX733 67 XOR2_X1
X79 66 67 68 XNOR2_X1
X80 64 68 DATA_9_19 XNOR2_X1
X81 TM1 WX799 69 XOR2_X1
X82 WX863 69 70 XNOR2_X1
X83 WX671 WX735 71 XOR2_X1
X84 70 71 72 XNOR2_X1
X85 TM0 WX511 73 NAND2_X1
X86 72 73 DATA_9_18 XNOR2_X1
X87 TM0 WX513 74 NAND2_X1
X88 TM1 WX801 75 XOR2_X1
X89 WX865 75 76 XNOR2_X1
X90 WX673 WX737 77 XOR2_X1
X91 76 77 78 XNOR2_X1
X92 74 78 DATA_9_17 XNOR2_X1
X93 TM0 WX515 79 NAND2_X1
X94 TM1 WX803 80 XOR2_X1
X95 WX867 80 81 XNOR2_X1
X96 WX675 WX739 82 XOR2_X1
X97 81 82 83 XNOR2_X1
X98 79 83 DATA_9_16 XNOR2_X1
X99 TM0 WX805 84 XNOR2_X1
X100 WX869 84 85 XNOR2_X1
X101 WX677 WX741 86 XOR2_X1
X102 85 86 87 XNOR2_X1
X103 TM0 WX517 88 NAND2_X1
X104 87 88 DATA_9_15 XOR2_X1
X105 TM0 WX519 89 NAND2_X1
X106 TM0 WX807 90 XNOR2_X1
X107 WX871 90 91 XNOR2_X1
X108 WX679 WX743 92 XOR2_X1
X109 91 92 93 XNOR2_X1
X110 89 93 DATA_9_14 XOR2_X1
X111 TM0 WX521 94 NAND2_X1
X112 TM0 WX809 95 XNOR2_X1
X113 WX873 95 96 XNOR2_X1
X114 WX681 WX745 97 XOR2_X1
X115 96 97 98 XNOR2_X1
X116 94 98 DATA_9_13 XOR2_X1
X117 TM0 WX523 99 NAND2_X1
X118 TM0 WX811 100 XNOR2_X1
X119 WX875 100 101 XNOR2_X1
X120 WX683 WX747 102 XOR2_X1
X121 101 102 103 XNOR2_X1
X122 99 103 DATA_9_12 XOR2_X1
X123 TM0 WX525 104 NAND2_X1
X124 TM0 WX813 105 XNOR2_X1
X125 WX877 105 106 XNOR2_X1
X126 WX685 WX749 107 XOR2_X1
X127 106 107 108 XNOR2_X1
X128 104 108 DATA_9_11 XOR2_X1
X129 TM0 WX527 109 NAND2_X1
X130 TM0 WX815 110 XNOR2_X1
X131 WX879 110 111 XNOR2_X1
X132 WX687 WX751 112 XOR2_X1
X133 111 112 113 XNOR2_X1
X134 109 113 DATA_9_10 XOR2_X1
X135 TM0 WX529 114 NAND2_X1
X136 TM0 WX817 115 XNOR2_X1
X137 WX881 115 116 XNOR2_X1
X138 WX689 WX753 117 XOR2_X1
X139 116 117 118 XNOR2_X1
X140 114 118 DATA_9_9 XOR2_X1
X141 TM0 WX531 119 NAND2_X1
X142 TM0 WX819 120 XNOR2_X1
X143 WX883 120 121 XNOR2_X1
X144 WX691 WX755 122 XOR2_X1
X145 121 122 123 XNOR2_X1
X146 119 123 DATA_9_8 XOR2_X1
X147 TM0 WX821 124 XNOR2_X1
X148 WX885 124 125 XNOR2_X1
X149 WX693 WX757 126 XOR2_X1
X150 125 126 127 XNOR2_X1
X151 TM0 WX533 128 NAND2_X1
X152 127 128 DATA_9_7 XOR2_X1
X153 TM0 WX535 129 NAND2_X1
X154 TM0 WX823 130 XNOR2_X1
X155 WX887 130 131 XNOR2_X1
X156 WX695 WX759 132 XOR2_X1
X157 131 132 133 XNOR2_X1
X158 129 133 DATA_9_6 XOR2_X1
X159 TM0 WX825 134 XNOR2_X1
X160 WX889 134 135 XNOR2_X1
X161 WX697 WX761 136 XOR2_X1
X162 135 136 137 XNOR2_X1
X163 TM0 WX537 138 NAND2_X1
X164 137 138 DATA_9_5 XOR2_X1
X165 TM0 WX827 139 XNOR2_X1
X166 WX891 139 140 XNOR2_X1
X167 WX699 WX763 141 XOR2_X1
X168 140 141 142 XNOR2_X1
X169 TM0 WX539 143 NAND2_X1
X170 142 143 DATA_9_4 XOR2_X1
X171 TM0 WX541 144 NAND2_X1
X172 TM0 WX829 145 XNOR2_X1
X173 WX893 145 146 XNOR2_X1
X174 WX701 WX765 147 XOR2_X1
X175 146 147 148 XNOR2_X1
X176 144 148 DATA_9_3 XOR2_X1
X177 TM0 WX831 149 XNOR2_X1
X178 WX895 149 150 XNOR2_X1
X179 WX703 WX767 151 XOR2_X1
X180 150 151 152 XNOR2_X1
X181 TM0 WX543 153 NAND2_X1
X182 152 153 DATA_9_2 XOR2_X1
X183 TM0 WX833 154 XNOR2_X1
X184 WX897 154 155 XNOR2_X1
X185 WX705 WX769 156 XOR2_X1
X186 155 156 157 XNOR2_X1
X187 TM0 WX545 158 NAND2_X1
X188 157 158 DATA_9_1 XOR2_X1
X189 TM0 WX835 159 XNOR2_X1
X190 WX899 159 160 XNOR2_X1
X191 WX707 WX771 161 XOR2_X1
X192 160 161 162 XNOR2_X1
X193 TM0 WX547 163 NAND2_X1
X194 162 163 DATA_9_0 XOR2_X1
X195 WX487 RESET WX484 AND2_X1
X196 WX489 RESET WX486 AND2_X1
X197 WX491 RESET WX488 AND2_X1
X198 WX493 RESET WX490 AND2_X1
X199 WX495 RESET WX492 AND2_X1
X200 WX497 RESET WX494 AND2_X1
X201 WX499 RESET WX496 AND2_X1
X202 WX501 RESET WX498 AND2_X1
X203 WX503 RESET WX500 AND2_X1
X204 WX505 RESET WX502 AND2_X1
X205 WX507 RESET WX504 AND2_X1
X206 WX509 RESET WX506 AND2_X1
X207 WX511 RESET WX508 AND2_X1
X208 WX513 RESET WX510 AND2_X1
X209 WX515 RESET WX512 AND2_X1
X210 WX517 RESET WX514 AND2_X1
X211 WX519 RESET WX516 AND2_X1
X212 WX521 RESET WX518 AND2_X1
X213 WX523 RESET WX520 AND2_X1
X214 WX525 RESET WX522 AND2_X1
X215 WX527 RESET WX524 AND2_X1
X216 WX529 RESET WX526 AND2_X1
X217 WX531 RESET WX528 AND2_X1
X218 WX533 RESET WX530 AND2_X1
X219 WX535 RESET WX532 AND2_X1
X220 WX537 RESET WX534 AND2_X1
X221 WX539 RESET WX536 AND2_X1
X222 WX541 RESET WX538 AND2_X1
X223 WX543 RESET WX540 AND2_X1
X224 WX545 RESET WX542 AND2_X1
X225 WX547 RESET WX544 AND2_X1
X226 WX485 3 WX546 NOR2_X1
X227 TM1 4 164 NAND2_X1
X228 164 8 2 165 AOI21_X1
X229 WX2066 WX2130 166 XOR2_X1
X230 TM1 166 167 XNOR2_X1
X231 WX1938 WX2002 168 XNOR2_X1
X232 TM0 167 168 169 AOI21_X1
X233 169 168 167 170 OAI21_X1
X234 TM1 CRC_OUT_9_31 TM0 171 AOI21_X1
X235 3 165 170 171 WX644 AOI211_X1
X236 TM1 9 172 NAND2_X1
X237 172 13 2 173 AOI21_X1
X238 WX2068 WX2132 174 XOR2_X1
X239 TM1 174 175 XNOR2_X1
X240 WX1940 WX2004 176 XNOR2_X1
X241 TM0 175 176 177 AOI21_X1
X242 177 176 175 178 OAI21_X1
X243 TM1 TM0 CRC_OUT_9_30 179 AOI21_X1
X244 3 173 178 179 WX646 AOI211_X1
X245 WX2070 WX2134 180 XOR2_X1
X246 TM1 180 181 XNOR2_X1
X247 WX1942 WX2006 182 XNOR2_X1
X248 TM0 181 182 183 AOI21_X1
X249 183 182 181 184 OAI21_X1
X250 TM1 TM0 CRC_OUT_9_29 185 AOI21_X1
X251 TM1 18 186 NAND2_X1
X252 186 17 2 187 AOI21_X1
X253 3 187 185 184 WX648 AOI211_X1
X254 TM1 19 188 NAND2_X1
X255 188 23 2 189 AOI21_X1
X256 WX2072 WX2136 190 XOR2_X1
X257 TM1 190 191 XNOR2_X1
X258 WX1944 WX2008 192 XNOR2_X1
X259 TM0 191 192 193 AOI21_X1
X260 193 192 191 194 OAI21_X1
X261 TM1 TM0 CRC_OUT_9_28 195 AOI21_X1
X262 3 189 194 195 WX650 AOI211_X1
X263 TM1 24 196 NAND2_X1
X264 196 28 2 197 AOI21_X1
X265 WX2074 WX2138 198 XOR2_X1
X266 TM1 198 199 XNOR2_X1
X267 WX1946 WX2010 200 XNOR2_X1
X268 TM0 199 200 201 AOI21_X1
X269 201 200 199 202 OAI21_X1
X270 TM1 TM0 CRC_OUT_9_27 203 AOI21_X1
X271 3 197 202 203 WX652 AOI211_X1
X272 WX2076 WX2140 204 XOR2_X1
X273 TM1 204 205 XNOR2_X1
X274 WX1948 WX2012 206 XNOR2_X1
X275 TM0 205 206 207 AOI21_X1
X276 207 206 205 208 OAI21_X1
X277 TM1 TM0 CRC_OUT_9_26 209 AOI21_X1
X278 TM1 33 210 NAND2_X1
X279 210 32 2 211 AOI21_X1
X280 3 211 209 208 WX654 AOI211_X1
X281 TM1 34 212 NAND2_X1
X282 212 38 2 213 AOI21_X1
X283 WX2078 WX2142 214 XOR2_X1
X284 TM1 214 215 XNOR2_X1
X285 WX1950 WX2014 216 XNOR2_X1
X286 TM0 215 216 217 AOI21_X1
X287 217 216 215 218 OAI21_X1
X288 TM1 TM0 CRC_OUT_9_25 219 AOI21_X1
X289 3 213 218 219 WX656 AOI211_X1
X290 TM1 39 220 NAND2_X1
X291 220 43 2 221 AOI21_X1
X292 WX2080 WX2144 222 XOR2_X1
X293 TM1 222 223 XNOR2_X1
X294 WX1952 WX2016 224 XNOR2_X1
X295 TM0 223 224 225 AOI21_X1
X296 225 224 223 226 OAI21_X1
X297 TM1 TM0 CRC_OUT_9_24 227 AOI21_X1
X298 3 221 226 227 WX658 AOI211_X1
X299 TM1 44 228 NAND2_X1
X300 228 48 2 229 AOI21_X1
X301 WX2082 WX2146 230 XOR2_X1
X302 TM1 230 231 XNOR2_X1
X303 WX1954 WX2018 232 XNOR2_X1
X304 TM0 231 232 233 AOI21_X1
X305 233 232 231 234 OAI21_X1
X306 TM1 TM0 CRC_OUT_9_23 235 AOI21_X1
X307 3 229 234 235 WX660 AOI211_X1
X308 WX2084 WX2148 236 XOR2_X1
X309 TM1 236 237 XNOR2_X1
X310 WX1956 WX2020 238 XNOR2_X1
X311 TM0 237 238 239 AOI21_X1
X312 239 238 237 240 OAI21_X1
X313 TM1 TM0 CRC_OUT_9_22 241 AOI21_X1
X314 TM1 53 242 NAND2_X1
X315 242 52 2 243 AOI21_X1
X316 3 243 241 240 WX662 AOI211_X1
X317 WX2086 WX2150 244 XOR2_X1
X318 TM1 244 245 XNOR2_X1
X319 WX1958 WX2022 246 XNOR2_X1
X320 TM0 245 246 247 AOI21_X1
X321 247 246 245 248 OAI21_X1
X322 TM1 TM0 CRC_OUT_9_21 249 AOI21_X1
X323 TM1 58 250 NAND2_X1
X324 250 57 2 251 AOI21_X1
X325 3 251 249 248 WX664 AOI211_X1
X326 TM1 59 252 NAND2_X1
X327 252 63 2 253 AOI21_X1
X328 WX2088 WX2152 254 XOR2_X1
X329 TM1 254 255 XNOR2_X1
X330 WX1960 WX2024 256 XNOR2_X1
X331 TM0 255 256 257 AOI21_X1
X332 257 256 255 258 OAI21_X1
X333 TM1 TM0 CRC_OUT_9_20 259 AOI21_X1
X334 3 253 258 259 WX666 AOI211_X1
X335 TM1 64 260 NAND2_X1
X336 260 68 2 261 AOI21_X1
X337 WX2090 WX2154 262 XOR2_X1
X338 TM1 262 263 XNOR2_X1
X339 WX1962 WX2026 264 XNOR2_X1
X340 TM0 263 264 265 AOI21_X1
X341 265 264 263 266 OAI21_X1
X342 TM1 TM0 CRC_OUT_9_19 267 AOI21_X1
X343 3 261 266 267 WX668 AOI211_X1
X344 WX2092 WX2156 268 XOR2_X1
X345 TM1 268 269 XNOR2_X1
X346 WX1964 WX2028 270 XNOR2_X1
X347 TM0 269 270 271 AOI21_X1
X348 271 270 269 272 OAI21_X1
X349 TM1 TM0 CRC_OUT_9_18 273 AOI21_X1
X350 TM1 73 274 NAND2_X1
X351 274 72 2 275 AOI21_X1
X352 3 275 273 272 WX670 AOI211_X1
X353 TM1 74 276 NAND2_X1
X354 276 78 2 277 AOI21_X1
X355 WX2094 WX2158 278 XOR2_X1
X356 TM1 278 279 XNOR2_X1
X357 WX1966 WX2030 280 XNOR2_X1
X358 TM0 279 280 281 AOI21_X1
X359 281 280 279 282 OAI21_X1
X360 TM1 TM0 CRC_OUT_9_17 283 AOI21_X1
X361 3 277 282 283 WX672 AOI211_X1
X362 TM1 79 284 NAND2_X1
X363 284 83 2 285 AOI21_X1
X364 WX2096 WX2160 286 XOR2_X1
X365 TM1 286 287 XNOR2_X1
X366 WX1968 WX2032 288 XNOR2_X1
X367 TM0 287 288 289 AOI21_X1
X368 289 288 287 290 OAI21_X1
X369 TM1 TM0 CRC_OUT_9_16 291 AOI21_X1
X370 3 285 290 291 WX674 AOI211_X1
X371 TM0 87 292 OR2_X1
X372 TM1 88 293 AND2_X1
X373 WX2098 WX2162 294 XNOR2_X1
X374 WX1970 WX2034 295 XNOR2_X1
X375 2 294 295 296 OAI21_X1
X376 296 295 294 297 AOI21_X1
X377 TM1 297 CRC_OUT_9_15 TM0 298 AOI211_X1
X378 3 298 293 292 WX676 AOI211_X1
X379 TM0 93 299 OR2_X1
X380 TM1 89 300 AND2_X1
X381 WX2100 WX2164 301 XNOR2_X1
X382 WX1972 WX2036 302 XNOR2_X1
X383 2 301 302 303 OAI21_X1
X384 303 302 301 304 AOI21_X1
X385 TM1 304 CRC_OUT_9_14 TM0 305 AOI211_X1
X386 3 305 300 299 WX678 AOI211_X1
X387 TM0 98 306 OR2_X1
X388 TM1 94 307 AND2_X1
X389 WX2102 WX2166 308 XNOR2_X1
X390 WX1974 WX2038 309 XNOR2_X1
X391 2 308 309 310 OAI21_X1
X392 310 309 308 311 AOI21_X1
X393 TM1 311 CRC_OUT_9_13 TM0 312 AOI211_X1
X394 3 312 307 306 WX680 AOI211_X1
X395 TM0 103 313 OR2_X1
X396 TM1 99 314 AND2_X1
X397 WX2104 WX2168 315 XNOR2_X1
X398 WX1976 WX2040 316 XNOR2_X1
X399 2 315 316 317 OAI21_X1
X400 317 316 315 318 AOI21_X1
X401 TM1 318 CRC_OUT_9_12 TM0 319 AOI211_X1
X402 3 319 314 313 WX682 AOI211_X1
X403 TM0 108 320 OR2_X1
X404 TM1 104 321 AND2_X1
X405 WX2106 WX2170 322 XNOR2_X1
X406 WX1978 WX2042 323 XNOR2_X1
X407 2 322 323 324 OAI21_X1
X408 324 323 322 325 AOI21_X1
X409 TM1 325 CRC_OUT_9_11 TM0 326 AOI211_X1
X410 3 326 321 320 WX684 AOI211_X1
X411 TM0 113 327 OR2_X1
X412 TM1 109 328 AND2_X1
X413 WX2108 WX2172 329 XNOR2_X1
X414 WX1980 WX2044 330 XNOR2_X1
X415 2 329 330 331 OAI21_X1
X416 331 330 329 332 AOI21_X1
X417 TM1 332 CRC_OUT_9_10 TM0 333 AOI211_X1
X418 3 333 328 327 WX686 AOI211_X1
X419 TM0 118 334 OR2_X1
X420 TM1 114 335 AND2_X1
X421 WX2110 WX2174 336 XNOR2_X1
X422 WX1982 WX2046 337 XNOR2_X1
X423 2 336 337 338 OAI21_X1
X424 338 337 336 339 AOI21_X1
X425 TM1 339 CRC_OUT_9_9 TM0 340 AOI211_X1
X426 3 340 335 334 WX688 AOI211_X1
X427 TM0 123 341 OR2_X1
X428 TM1 119 342 AND2_X1
X429 WX2112 WX2176 343 XNOR2_X1
X430 WX1984 WX2048 344 XNOR2_X1
X431 2 343 344 345 OAI21_X1
X432 345 344 343 346 AOI21_X1
X433 TM1 346 CRC_OUT_9_8 TM0 347 AOI211_X1
X434 3 347 342 341 WX690 AOI211_X1
X435 TM0 127 348 OR2_X1
X436 TM1 128 349 AND2_X1
X437 WX2114 WX2178 350 XNOR2_X1
X438 WX1986 WX2050 351 XNOR2_X1
X439 2 350 351 352 OAI21_X1
X440 352 351 350 353 AOI21_X1
X441 TM1 353 CRC_OUT_9_7 TM0 354 AOI211_X1
X442 3 354 349 348 WX692 AOI211_X1
X443 TM0 133 355 OR2_X1
X444 TM1 129 356 AND2_X1
X445 WX2116 WX2180 357 XNOR2_X1
X446 WX1988 WX2052 358 XNOR2_X1
X447 2 357 358 359 OAI21_X1
X448 359 358 357 360 AOI21_X1
X449 TM1 360 CRC_OUT_9_6 TM0 361 AOI211_X1
X450 3 361 356 355 WX694 AOI211_X1
X451 TM0 137 362 OR2_X1
X452 TM1 138 363 AND2_X1
X453 WX2118 WX2182 364 XNOR2_X1
X454 WX1990 WX2054 365 XNOR2_X1
X455 2 364 365 366 OAI21_X1
X456 366 365 364 367 AOI21_X1
X457 TM1 367 CRC_OUT_9_5 TM0 368 AOI211_X1
X458 3 368 363 362 WX696 AOI211_X1
X459 TM0 142 369 OR2_X1
X460 TM1 143 370 AND2_X1
X461 WX2120 WX2184 371 XNOR2_X1
X462 WX1992 WX2056 372 XNOR2_X1
X463 2 371 372 373 OAI21_X1
X464 373 372 371 374 AOI21_X1
X465 TM1 374 CRC_OUT_9_4 TM0 375 AOI211_X1
X466 3 375 370 369 WX698 AOI211_X1
X467 TM0 148 376 OR2_X1
X468 TM1 144 377 AND2_X1
X469 WX2122 WX2186 378 XNOR2_X1
X470 WX1994 WX2058 379 XNOR2_X1
X471 2 378 379 380 OAI21_X1
X472 380 379 378 381 AOI21_X1
X473 TM1 381 CRC_OUT_9_3 TM0 382 AOI211_X1
X474 3 382 377 376 WX700 AOI211_X1
X475 TM0 152 383 OR2_X1
X476 TM1 153 384 AND2_X1
X477 WX2124 WX2188 385 XNOR2_X1
X478 WX1996 WX2060 386 XNOR2_X1
X479 2 385 386 387 OAI21_X1
X480 387 386 385 388 AOI21_X1
X481 TM1 388 CRC_OUT_9_2 TM0 389 AOI211_X1
X482 3 389 384 383 WX702 AOI211_X1
X483 TM0 157 390 OR2_X1
X484 TM1 158 391 AND2_X1
X485 WX2126 WX2190 392 XNOR2_X1
X486 WX1998 WX2062 393 XNOR2_X1
X487 2 392 393 394 OAI21_X1
X488 394 393 392 395 AOI21_X1
X489 TM1 395 CRC_OUT_9_1 TM0 396 AOI211_X1
X490 3 396 391 390 WX704 AOI211_X1
X491 TM0 162 397 OR2_X1
X492 TM1 163 398 AND2_X1
X493 WX2128 WX2192 399 XNOR2_X1
X494 WX2000 WX2064 400 XNOR2_X1
X495 2 399 400 401 OAI21_X1
X496 401 400 399 402 AOI21_X1
X497 TM1 402 CRC_OUT_9_0 TM0 403 AOI211_X1
X498 3 403 398 397 WX706 AOI211_X1
X499 RESET WX645 WX708 AND2_X1
X500 RESET WX647 WX710 AND2_X1
X501 RESET WX649 WX712 AND2_X1
X502 RESET WX651 WX714 AND2_X1
X503 RESET WX653 WX716 AND2_X1
X504 RESET WX655 WX718 AND2_X1
X505 RESET WX657 WX720 AND2_X1
X506 RESET WX659 WX722 AND2_X1
X507 RESET WX661 WX724 AND2_X1
X508 RESET WX663 WX726 AND2_X1
X509 RESET WX665 WX728 AND2_X1
X510 RESET WX667 WX730 AND2_X1
X511 RESET WX669 WX732 AND2_X1
X512 RESET WX671 WX734 AND2_X1
X513 RESET WX673 WX736 AND2_X1
X514 RESET WX675 WX738 AND2_X1
X515 RESET WX677 WX740 AND2_X1
X516 RESET WX679 WX742 AND2_X1
X517 RESET WX681 WX744 AND2_X1
X518 RESET WX683 WX746 AND2_X1
X519 RESET WX685 WX748 AND2_X1
X520 RESET WX687 WX750 AND2_X1
X521 RESET WX689 WX752 AND2_X1
X522 RESET WX691 WX754 AND2_X1
X523 RESET WX693 WX756 AND2_X1
X524 RESET WX695 WX758 AND2_X1
X525 RESET WX697 WX760 AND2_X1
X526 RESET WX699 WX762 AND2_X1
X527 RESET WX701 WX764 AND2_X1
X528 RESET WX703 WX766 AND2_X1
X529 RESET WX705 WX768 AND2_X1
X530 RESET WX707 WX770 AND2_X1
X531 RESET WX709 WX772 AND2_X1
X532 RESET WX711 WX774 AND2_X1
X533 RESET WX713 WX776 AND2_X1
X534 RESET WX715 WX778 AND2_X1
X535 RESET WX717 WX780 AND2_X1
X536 RESET WX719 WX782 AND2_X1
X537 RESET WX721 WX784 AND2_X1
X538 RESET WX723 WX786 AND2_X1
X539 RESET WX725 WX788 AND2_X1
X540 RESET WX727 WX790 AND2_X1
X541 RESET WX729 WX792 AND2_X1
X542 RESET WX731 WX794 AND2_X1
X543 RESET WX733 WX796 AND2_X1
X544 RESET WX735 WX798 AND2_X1
X545 RESET WX737 WX800 AND2_X1
X546 RESET WX739 WX802 AND2_X1
X547 RESET WX741 WX804 AND2_X1
X548 RESET WX743 WX806 AND2_X1
X549 RESET WX745 WX808 AND2_X1
X550 RESET WX747 WX810 AND2_X1
X551 RESET WX749 WX812 AND2_X1
X552 RESET WX751 WX814 AND2_X1
X553 RESET WX753 WX816 AND2_X1
X554 RESET WX755 WX818 AND2_X1
X555 RESET WX757 WX820 AND2_X1
X556 RESET WX759 WX822 AND2_X1
X557 RESET WX761 WX824 AND2_X1
X558 RESET WX763 WX826 AND2_X1
X559 RESET WX765 WX828 AND2_X1
X560 RESET WX767 WX830 AND2_X1
X561 RESET WX769 WX832 AND2_X1
X562 RESET WX771 WX834 AND2_X1
X563 RESET WX773 WX836 AND2_X1
X564 RESET WX775 WX838 AND2_X1
X565 RESET WX777 WX840 AND2_X1
X566 RESET WX779 WX842 AND2_X1
X567 RESET WX781 WX844 AND2_X1
X568 RESET WX783 WX846 AND2_X1
X569 RESET WX785 WX848 AND2_X1
X570 RESET WX787 WX850 AND2_X1
X571 RESET WX789 WX852 AND2_X1
X572 RESET WX791 WX854 AND2_X1
X573 RESET WX793 WX856 AND2_X1
X574 RESET WX795 WX858 AND2_X1
X575 RESET WX797 WX860 AND2_X1
X576 RESET WX799 WX862 AND2_X1
X577 RESET WX801 WX864 AND2_X1
X578 RESET WX803 WX866 AND2_X1
X579 RESET WX805 WX868 AND2_X1
X580 RESET WX807 WX870 AND2_X1
X581 RESET WX809 WX872 AND2_X1
X582 RESET WX811 WX874 AND2_X1
X583 RESET WX813 WX876 AND2_X1
X584 RESET WX815 WX878 AND2_X1
X585 RESET WX817 WX880 AND2_X1
X586 RESET WX819 WX882 AND2_X1
X587 RESET WX821 WX884 AND2_X1
X588 RESET WX823 WX886 AND2_X1
X589 RESET WX825 WX888 AND2_X1
X590 RESET WX827 WX890 AND2_X1
X591 RESET WX829 WX892 AND2_X1
X592 RESET WX831 WX894 AND2_X1
X593 RESET WX833 WX896 AND2_X1
X594 RESET WX835 WX898 AND2_X1
X595 CRC_OUT_9_31 WX899 404 XOR2_X1
X596 3 404 WX1264 NOR2_X1
X597 CRC_OUT_9_0 WX897 405 XOR2_X1
X598 3 405 WX1266 NOR2_X1
X599 CRC_OUT_9_1 WX895 406 XOR2_X1
X600 3 406 WX1268 NOR2_X1
X601 CRC_OUT_9_2 WX893 407 XOR2_X1
X602 3 407 WX1270 NOR2_X1
X603 CRC_OUT_9_31 CRC_OUT_9_3 408 XNOR2_X1
X604 WX891 408 409 XNOR2_X1
X605 3 409 WX1272 NOR2_X1
X606 CRC_OUT_9_4 WX889 410 XOR2_X1
X607 3 410 WX1274 NOR2_X1
X608 CRC_OUT_9_5 WX887 411 XOR2_X1
X609 3 411 WX1276 NOR2_X1
X610 CRC_OUT_9_6 WX885 412 XOR2_X1
X611 3 412 WX1278 NOR2_X1
X612 CRC_OUT_9_7 WX883 413 XOR2_X1
X613 3 413 WX1280 NOR2_X1
X614 CRC_OUT_9_8 WX881 414 XOR2_X1
X615 3 414 WX1282 NOR2_X1
X616 CRC_OUT_9_9 WX879 415 XOR2_X1
X617 3 415 WX1284 NOR2_X1
X618 CRC_OUT_9_31 CRC_OUT_9_10 416 XNOR2_X1
X619 WX877 416 417 XNOR2_X1
X620 3 417 WX1286 NOR2_X1
X621 CRC_OUT_9_11 WX875 418 XOR2_X1
X622 3 418 WX1288 NOR2_X1
X623 CRC_OUT_9_12 WX873 419 XOR2_X1
X624 3 419 WX1290 NOR2_X1
X625 CRC_OUT_9_13 WX871 420 XOR2_X1
X626 3 420 WX1292 NOR2_X1
X627 CRC_OUT_9_14 WX869 421 XOR2_X1
X628 3 421 WX1294 NOR2_X1
X629 CRC_OUT_9_31 CRC_OUT_9_15 422 XNOR2_X1
X630 WX867 422 423 XNOR2_X1
X631 3 423 WX1296 NOR2_X1
X632 CRC_OUT_9_16 WX865 424 XOR2_X1
X633 3 424 WX1298 NOR2_X1
X634 CRC_OUT_9_17 WX863 425 XOR2_X1
X635 3 425 WX1300 NOR2_X1
X636 CRC_OUT_9_18 WX861 426 XOR2_X1
X637 3 426 WX1302 NOR2_X1
X638 CRC_OUT_9_19 WX859 427 XOR2_X1
X639 3 427 WX1304 NOR2_X1
X640 CRC_OUT_9_20 WX857 428 XOR2_X1
X641 3 428 WX1306 NOR2_X1
X642 CRC_OUT_9_21 WX855 429 XOR2_X1
X643 3 429 WX1308 NOR2_X1
X644 CRC_OUT_9_22 WX853 430 XOR2_X1
X645 3 430 WX1310 NOR2_X1
X646 CRC_OUT_9_23 WX851 431 XOR2_X1
X647 3 431 WX1312 NOR2_X1
X648 CRC_OUT_9_24 WX849 432 XOR2_X1
X649 3 432 WX1314 NOR2_X1
X650 CRC_OUT_9_25 WX847 433 XOR2_X1
X651 3 433 WX1316 NOR2_X1
X652 CRC_OUT_9_26 WX845 434 XOR2_X1
X653 3 434 WX1318 NOR2_X1
X654 CRC_OUT_9_27 WX843 435 XOR2_X1
X655 3 435 WX1320 NOR2_X1
X656 CRC_OUT_9_28 WX841 436 XOR2_X1
X657 3 436 WX1322 NOR2_X1
X658 CRC_OUT_9_29 WX839 437 XOR2_X1
X659 3 437 WX1324 NOR2_X1
X660 CRC_OUT_9_30 WX837 438 XOR2_X1
X661 3 438 WX1326 NOR2_X1
X662 RESET WX1780 WX1777 AND2_X1
X663 RESET WX1782 WX1779 AND2_X1
X664 RESET WX1784 WX1781 AND2_X1
X665 RESET WX1786 WX1783 AND2_X1
X666 RESET WX1788 WX1785 AND2_X1
X667 RESET WX1790 WX1787 AND2_X1
X668 RESET WX1792 WX1789 AND2_X1
X669 RESET WX1794 WX1791 AND2_X1
X670 RESET WX1796 WX1793 AND2_X1
X671 RESET WX1798 WX1795 AND2_X1
X672 RESET WX1800 WX1797 AND2_X1
X673 RESET WX1802 WX1799 AND2_X1
X674 RESET WX1804 WX1801 AND2_X1
X675 RESET WX1806 WX1803 AND2_X1
X676 RESET WX1808 WX1805 AND2_X1
X677 RESET WX1810 WX1807 AND2_X1
X678 RESET WX1812 WX1809 AND2_X1
X679 RESET WX1814 WX1811 AND2_X1
X680 RESET WX1816 WX1813 AND2_X1
X681 RESET WX1818 WX1815 AND2_X1
X682 RESET WX1820 WX1817 AND2_X1
X683 RESET WX1822 WX1819 AND2_X1
X684 RESET WX1824 WX1821 AND2_X1
X685 RESET WX1826 WX1823 AND2_X1
X686 RESET WX1828 WX1825 AND2_X1
X687 RESET WX1830 WX1827 AND2_X1
X688 RESET WX1832 WX1829 AND2_X1
X689 RESET WX1834 WX1831 AND2_X1
X690 RESET WX1836 WX1833 AND2_X1
X691 RESET WX1838 WX1835 AND2_X1
X692 RESET WX1840 WX1837 AND2_X1
X693 3 WX1778 WX1839 NOR2_X1
X694 WX3359 WX3423 439 XOR2_X1
X695 TM1 439 440 XNOR2_X1
X696 WX3231 WX3295 441 XNOR2_X1
X697 TM0 440 441 442 AOI21_X1
X698 442 441 440 443 OAI21_X1
X699 TM1 TM0 CRC_OUT_8_31 444 AOI21_X1
X700 1 TM0 WX1778 445 AOI21_X1
X701 3 443 444 445 170 WX1937 AOI221_X1
X702 WX3361 WX3425 446 XOR2_X1
X703 TM1 446 447 XNOR2_X1
X704 WX3233 WX3297 448 XNOR2_X1
X705 TM0 447 448 449 AOI21_X1
X706 449 448 447 450 OAI21_X1
X707 TM1 TM0 CRC_OUT_8_30 451 AOI21_X1
X708 1 TM0 WX1780 452 AOI21_X1
X709 3 450 451 452 178 WX1939 AOI221_X1
X710 WX3363 WX3427 453 XOR2_X1
X711 TM1 453 454 XNOR2_X1
X712 WX3235 WX3299 455 XNOR2_X1
X713 TM0 454 455 456 AOI21_X1
X714 456 455 454 457 OAI21_X1
X715 TM1 TM0 CRC_OUT_8_29 458 AOI21_X1
X716 1 TM0 WX1782 459 AOI21_X1
X717 3 457 458 459 184 WX1941 AOI221_X1
X718 WX3365 WX3429 460 XOR2_X1
X719 TM1 460 461 XNOR2_X1
X720 WX3237 WX3301 462 XNOR2_X1
X721 TM0 461 462 463 AOI21_X1
X722 463 462 461 464 OAI21_X1
X723 TM1 TM0 CRC_OUT_8_28 465 AOI21_X1
X724 1 TM0 WX1784 466 AOI21_X1
X725 3 464 465 466 194 WX1943 AOI221_X1
X726 WX3367 WX3431 467 XOR2_X1
X727 TM1 467 468 XNOR2_X1
X728 WX3239 WX3303 469 XNOR2_X1
X729 TM0 468 469 470 AOI21_X1
X730 470 469 468 471 OAI21_X1
X731 TM1 TM0 CRC_OUT_8_27 472 AOI21_X1
X732 1 TM0 WX1786 473 AOI21_X1
X733 3 471 472 473 202 WX1945 AOI221_X1
X734 WX3369 WX3433 474 XOR2_X1
X735 TM1 474 475 XNOR2_X1
X736 WX3241 WX3305 476 XNOR2_X1
X737 TM0 475 476 477 AOI21_X1
X738 477 476 475 478 OAI21_X1
X739 TM1 TM0 CRC_OUT_8_26 479 AOI21_X1
X740 1 TM0 WX1788 480 AOI21_X1
X741 3 478 479 480 208 WX1947 AOI221_X1
X742 WX3371 WX3435 481 XOR2_X1
X743 TM1 481 482 XNOR2_X1
X744 WX3243 WX3307 483 XNOR2_X1
X745 TM0 482 483 484 AOI21_X1
X746 484 483 482 485 OAI21_X1
X747 TM1 TM0 CRC_OUT_8_25 486 AOI21_X1
X748 1 TM0 WX1790 487 AOI21_X1
X749 3 485 486 487 218 WX1949 AOI221_X1
X750 WX3373 WX3437 488 XOR2_X1
X751 TM1 488 489 XNOR2_X1
X752 WX3245 WX3309 490 XNOR2_X1
X753 TM0 489 490 491 AOI21_X1
X754 491 490 489 492 OAI21_X1
X755 TM1 TM0 CRC_OUT_8_24 493 AOI21_X1
X756 1 TM0 WX1792 494 AOI21_X1
X757 3 492 493 494 226 WX1951 AOI221_X1
X758 WX3375 WX3439 495 XOR2_X1
X759 TM1 495 496 XNOR2_X1
X760 WX3247 WX3311 497 XNOR2_X1
X761 TM0 496 497 498 AOI21_X1
X762 498 497 496 499 OAI21_X1
X763 TM1 TM0 CRC_OUT_8_23 500 AOI21_X1
X764 1 TM0 WX1794 501 AOI21_X1
X765 3 499 500 501 234 WX1953 AOI221_X1
X766 WX3377 WX3441 502 XOR2_X1
X767 TM1 502 503 XNOR2_X1
X768 WX3249 WX3313 504 XNOR2_X1
X769 TM0 503 504 505 AOI21_X1
X770 505 504 503 506 OAI21_X1
X771 TM1 TM0 CRC_OUT_8_22 507 AOI21_X1
X772 1 TM0 WX1796 508 AOI21_X1
X773 3 506 507 508 240 WX1955 AOI221_X1
X774 WX3379 WX3443 509 XOR2_X1
X775 TM1 509 510 XNOR2_X1
X776 WX3251 WX3315 511 XNOR2_X1
X777 TM0 510 511 512 AOI21_X1
X778 512 511 510 513 OAI21_X1
X779 TM1 TM0 CRC_OUT_8_21 514 AOI21_X1
X780 1 TM0 WX1798 515 AOI21_X1
X781 3 513 514 515 248 WX1957 AOI221_X1
X782 WX3381 WX3445 516 XOR2_X1
X783 TM1 516 517 XNOR2_X1
X784 WX3253 WX3317 518 XNOR2_X1
X785 TM0 517 518 519 AOI21_X1
X786 519 518 517 520 OAI21_X1
X787 TM1 TM0 CRC_OUT_8_20 521 AOI21_X1
X788 1 TM0 WX1800 522 AOI21_X1
X789 3 520 521 522 258 WX1959 AOI221_X1
X790 WX3383 WX3447 523 XOR2_X1
X791 TM1 523 524 XNOR2_X1
X792 WX3255 WX3319 525 XNOR2_X1
X793 TM0 524 525 526 AOI21_X1
X794 526 525 524 527 OAI21_X1
X795 TM1 TM0 CRC_OUT_8_19 528 AOI21_X1
X796 1 TM0 WX1802 529 AOI21_X1
X797 3 527 528 529 266 WX1961 AOI221_X1
X798 WX3385 WX3449 530 XOR2_X1
X799 TM1 530 531 XNOR2_X1
X800 WX3257 WX3321 532 XNOR2_X1
X801 TM0 531 532 533 AOI21_X1
X802 533 532 531 534 OAI21_X1
X803 TM1 TM0 CRC_OUT_8_18 535 AOI21_X1
X804 1 TM0 WX1804 536 AOI21_X1
X805 3 534 535 536 272 WX1963 AOI221_X1
X806 WX3387 WX3451 537 XOR2_X1
X807 TM1 537 538 XNOR2_X1
X808 WX3259 WX3323 539 XNOR2_X1
X809 TM0 538 539 540 AOI21_X1
X810 540 539 538 541 OAI21_X1
X811 TM1 TM0 CRC_OUT_8_17 542 AOI21_X1
X812 1 TM0 WX1806 543 AOI21_X1
X813 3 541 542 543 282 WX1965 AOI221_X1
X814 WX3389 WX3453 544 XOR2_X1
X815 TM1 544 545 XNOR2_X1
X816 WX3261 WX3325 546 XNOR2_X1
X817 TM0 545 546 547 AOI21_X1
X818 547 546 545 548 OAI21_X1
X819 TM1 TM0 CRC_OUT_8_16 549 AOI21_X1
X820 1 TM0 WX1808 550 AOI21_X1
X821 3 548 549 550 290 WX1967 AOI221_X1
X822 WX3391 WX3455 551 XOR2_X1
X823 WX3263 WX3327 552 XOR2_X1
X824 TM0 551 552 553 AOI21_X1
X825 553 552 551 554 OAI21_X1
X826 TM1 TM0 CRC_OUT_8_15 555 AOI21_X1
X827 1 297 WX1810 TM0 556 AOI211_X1
X828 3 556 555 554 WX1969 AOI211_X1
X829 WX3393 WX3457 557 XOR2_X1
X830 WX3265 WX3329 558 XOR2_X1
X831 TM0 557 558 559 AOI21_X1
X832 559 558 557 560 OAI21_X1
X833 TM1 TM0 CRC_OUT_8_14 561 AOI21_X1
X834 1 304 WX1812 TM0 562 AOI211_X1
X835 3 562 561 560 WX1971 AOI211_X1
X836 WX3395 WX3459 563 XOR2_X1
X837 WX3267 WX3331 564 XOR2_X1
X838 TM0 563 564 565 AOI21_X1
X839 565 564 563 566 OAI21_X1
X840 TM1 TM0 CRC_OUT_8_13 567 AOI21_X1
X841 1 311 WX1814 TM0 568 AOI211_X1
X842 3 568 567 566 WX1973 AOI211_X1
X843 WX3397 WX3461 569 XOR2_X1
X844 WX3269 WX3333 570 XOR2_X1
X845 TM0 569 570 571 AOI21_X1
X846 571 570 569 572 OAI21_X1
X847 TM1 TM0 CRC_OUT_8_12 573 AOI21_X1
X848 1 318 WX1816 TM0 574 AOI211_X1
X849 3 574 573 572 WX1975 AOI211_X1
X850 WX3399 WX3463 575 XOR2_X1
X851 WX3271 WX3335 576 XOR2_X1
X852 TM0 575 576 577 AOI21_X1
X853 577 576 575 578 OAI21_X1
X854 TM1 TM0 CRC_OUT_8_11 579 AOI21_X1
X855 1 325 WX1818 TM0 580 AOI211_X1