* Nangila SPICE Auto-Synthesized Netlist
.SUBCKT INV_X1 A Z
M1 Z A 0 0 NMOS W=0.2u L=0.05u
M2 Z A 1 1 PMOS W=0.4u L=0.05u
.ENDS

.SUBCKT NAND2_X1 A1 A2 Z
M1 Z A1 1 1 PMOS W=0.4u L=0.05u
M2 Z A2 1 1 PMOS W=0.4u L=0.05u
M3 Z A1 int 0 NMOS W=0.2u L=0.05u
M4 int A2 0 0 NMOS W=0.2u L=0.05u
.ENDS

.SUBCKT AND2_X1 A1 A2 Z
X1 A1 A2 Z_bar NAND2_X1
X2 Z_bar Z INV_X1
.ENDS

.SUBCKT NOR2_X1 A1 A2 Z
M1 int1 A1 1 1 PMOS W=0.4u L=0.05u
M2 Z A2 int1 1 PMOS W=0.4u L=0.05u
M3 Z A1 0 0 NMOS W=0.2u L=0.05u
M4 Z A2 0 0 NMOS W=0.2u L=0.05u
.ENDS

.SUBCKT OR2_X1 A1 A2 Z
X1 A1 A2 Z_bar NOR2_X1
X2 Z_bar Z INV_X1
.ENDS

.SUBCKT XOR2_X1 A1 A2 Z
X1 A1 A2 int1 AND2_X1
X2 A1 A2 int2 NOR2_X1
X3 int1 int2 int3 NOR2_X1
X4 int3 Z INV_X1
.ENDS

.SUBCKT XNOR2_X1 A B Z
X1 A B Z_int XOR2_X1
X2 Z_int Z INV_X1
.ENDS

.SUBCKT BUF_X1 A Z
X1 A Z_bar INV_X1
X2 Z_bar Z INV_X1
.ENDS

.SUBCKT OAI21_X1 A B C Z
X1 A B C Z_bar AOI21_X1
X2 Z_bar Z INV_X1
.ENDS

.SUBCKT AOI21_X1 A B C Z
M1 Z A int1 1 PMOS W=0.4u L=0.05u
M2 int1 B 1 1 PMOS W=0.4u L=0.05u
M3 Z C 1 1 PMOS W=0.4u L=0.05u
M4 Z A 0 0 NMOS W=0.2u L=0.05u
M5 Z B 0 0 NMOS W=0.2u L=0.05u
M6 Z C 0 0 NMOS W=0.2u L=0.05u
.ENDS

.SUBCKT NAND3_X1 A1 A2 A3 Z
X1 A1 A2 int1 AND2_X1
X2 int1 A3 Z NAND2_X1
.ENDS

.SUBCKT AND3_X1 A1 A2 A3 Z
X1 A1 A2 A3 Z_bar NAND3_X1
X2 Z_bar Z INV_X1
.ENDS

.SUBCKT NOR3_X1 A1 A2 A3 Z
X1 A1 A2 int1 OR2_X1
X2 int1 A3 Z NOR2_X1
.ENDS

.SUBCKT OR3_X1 A1 A2 A3 Z
X1 A1 A2 A3 Z_bar NOR3_X1
X2 Z_bar Z INV_X1
.ENDS

.SUBCKT NAND4_X1 A1 A2 A3 A4 Z
X1 A1 A2 A3 int1 AND3_X1
X2 int1 A4 Z NAND2_X1
.ENDS

.SUBCKT AND4_X1 A1 A2 A3 A4 Z
X1 A1 A2 A3 A4 Z_bar NAND4_X1
X2 Z_bar Z INV_X1
.ENDS

.SUBCKT NOR4_X1 A1 A2 A3 A4 Z
X1 A1 A2 A3 int1 OR3_X1
X2 int1 A4 Z NOR2_X1
.ENDS

.SUBCKT OR4_X1 A1 A2 A3 A4 Z
X1 A1 A2 A3 A4 Z_bar NOR4_X1
X2 Z_bar Z INV_X1
.ENDS

.SUBCKT AOI22_X1 A B C D Z
X1 A B int1 AND2_X1
X2 C D int2 AND2_X1
X3 int1 int2 Z NOR2_X1
.ENDS

.SUBCKT OAI22_X1 A B C D Z
X1 A B int1 OR2_X1
X2 C D int2 OR2_X1
X3 int1 int2 Z NAND2_X1
.ENDS

.SUBCKT AOI211_X1 A B C D Z
X1 A B int1 AND2_X1
X2 int1 C D Z NOR3_X1
.ENDS

.SUBCKT OAI211_X1 A B C D Z
X1 A B int1 OR2_X1
X2 int1 C D Z NAND3_X1
.ENDS

.SUBCKT OAI33_X1 A B C D E F Z
X1 A B C int1 OR3_X1
X2 D E F int2 OR3_X1
X3 int1 int2 Z NAND2_X1
.ENDS

.SUBCKT AOI33_X1 A B C D E F Z
X1 A B C int1 AND3_X1
X2 D E F int2 AND3_X1
X3 int1 int2 Z NOR2_X1
.ENDS

.SUBCKT MUX2_X1 A B S Z
X1 S S_bar INV_X1
X2 A S_bar int1 AND2_X1
X3 B S int2 AND2_X1
X4 int1 int2 Z OR2_X1
.ENDS

.SUBCKT DFF_X1 D C Q QN
X1 D Q_int INV_X1
X2 Q_int Q INV_X1
X3 Q_int QN INV_X1
.ENDS

.SUBCKT DFFR_X1 D C RN Q QN
X1 D Q_int INV_X1
X2 Q_int Q INV_X1
X3 Q_int QN INV_X1
.ENDS

.SUBCKT DFFS_X1 C D Q QN SN
X1 D Q_int INV_X1
X2 Q_int Q INV_X1
X3 Q_int QN INV_X1
.ENDS

.SUBCKT DFFRS_X1 C D Q QN RN SN
X1 D Q_int INV_X1
X2 Q_int Q INV_X1
X3 Q_int QN INV_X1
.ENDS

* Provide VDD power source explicitly
Vvdd 1 0 1.8

* Auto-extracted Inputs:
V_CK CK 0 1.8
V_D D 0 0.0
V_CK CK 0 1.8
V_g51 g51 0 0.0
V_g563 g563 0 1.8
V_g1249 g1249 0 0.0
V_g1943 g1943 0 1.8
V_g2637 g2637 0 0.0
V_g3212 g3212 0 1.8
V_g3213 g3213 0 0.0
V_g3214 g3214 0 1.8
V_g3215 g3215 0 0.0
V_g3216 g3216 0 1.8
V_g3217 g3217 0 0.0
V_g3218 g3218 0 1.8
V_g3219 g3219 0 0.0
V_g3220 g3220 0 1.8
V_g3221 g3221 0 0.0
V_g3222 g3222 0 1.8
V_g3223 g3223 0 0.0
V_g3224 g3224 0 1.8
V_g3225 g3225 0 0.0
V_g3226 g3226 0 1.8
V_g3227 g3227 0 0.0
V_g3228 g3228 0 1.8
V_g3229 g3229 0 0.0
V_g3230 g3230 0 1.8
V_g3231 g3231 0 0.0
V_g3232 g3232 0 1.8
V_g3233 g3233 0 0.0
V_g3234 g3234 0 1.8

* Yosys Generated Netlist:
* SPICE netlist generated by Yosys 0.62 (git sha1 7326bb7d6641500ecb285c291a54a662cb1e76cf, clang++ 17.0.0 -fPIC -O3)

.SUBCKT dff CK Q D
X0 CK D Q 1 DFF_X1
.ENDS dff

X0 g11022 1 INV_X1
X1 g10988 2 INV_X1
X2 g10963 3 INV_X1
X3 g11036 4 INV_X1
X4 g10996 5 INV_X1
X5 g11048 6 INV_X1
X6 g11092 7 INV_X1
X7 g11108 8 INV_X1
X8 g11120 9 INV_X1
X9 g11160 10 INV_X1
X10 g11176 11 INV_X1
X11 g11246 12 INV_X1
X12 g10021 13 INV_X1
X13 g10018 14 INV_X1
X14 g10049 15 INV_X1
X15 g545 16 INV_X1
X16 g10127 17 INV_X1
X17 g10158 18 INV_X1
X18 g10052 19 INV_X1
X19 g10067 20 INV_X1
X20 g10090 21 INV_X1
X21 g10070 22 INV_X1
X22 g10087 23 INV_X1
X23 g10179 24 INV_X1
X24 g499 25 INV_X1
X25 g1880 26 INV_X1
X26 g2574 27 INV_X1
X27 g276 28 INV_X1
X28 g405 29 INV_X1
X29 g5473 30 INV_X1
X30 g3306 31 INV_X1
X31 g1092 32 INV_X1
X32 g1657 33 INV_X1
X33 g1088 34 INV_X1
X34 g11114 35 INV_X1
X35 g2351 36 INV_X1
X36 g1782 37 INV_X1
X37 g11182 38 INV_X1
X38 g2476 39 INV_X1
X39 g525 40 INV_X1
X40 g623 41 INV_X1
X41 g411 42 INV_X1
X42 g626 43 INV_X1
X43 g1309 44 INV_X1
X44 g1905 45 INV_X1
X45 g3366 46 INV_X1
X46 g1312 47 INV_X1
X47 g2003 48 INV_X1
X48 g2599 49 INV_X1
X49 g1315 50 INV_X1
X50 g2006 51 INV_X1
X51 g2697 52 INV_X1
X52 g2009 53 INV_X1
X53 g2700 54 INV_X1
X54 g2703 55 INV_X1
X55 g2924 56 INV_X1
X56 g554 57 INV_X1
X57 g1240 58 INV_X1
X58 g1934 59 INV_X1
X59 g2628 60 INV_X1
X60 II18461 g11495 INV_X1
X61 II18458 g11494 INV_X1
X62 II18455 g11493 INV_X1
X63 II18452 g11492 INV_X1
X64 II18449 g11491 INV_X1
X65 II18509 g11511 INV_X1
X66 II18506 g11510 INV_X1
X67 II18503 g11509 INV_X1
X68 II18542 g11522 INV_X1
X69 II18539 g11521 INV_X1
X70 II18536 g11520 INV_X1
X71 II18533 g11519 INV_X1
X72 II18530 g11518 INV_X1
X73 II18590 g11538 INV_X1
X74 II18587 g11537 INV_X1
X75 II18584 g11536 INV_X1
X76 II18623 g11549 INV_X1
X77 II18620 g11548 INV_X1
X78 II18617 g11547 INV_X1
X79 II18614 g11546 INV_X1
X80 II18611 g11545 INV_X1
X81 II18671 g11565 INV_X1
X82 II18668 g11564 INV_X1
X83 II18665 g11563 INV_X1
X84 II18704 g11576 INV_X1
X85 II18701 g11575 INV_X1
X86 II18698 g11574 INV_X1
X87 II18695 g11573 INV_X1
X88 II18692 g11572 INV_X1
X89 II18752 g11592 INV_X1
X90 II18749 g11591 INV_X1
X91 II18746 g11590 INV_X1
X92 g2883 61 INV_X1
X93 g1234 62 INV_X1
X94 g12962 63 INV_X1
X95 g2920 64 INV_X1
X96 g11603 65 INV_X1
X97 g510 66 INV_X1
X98 g1196 67 INV_X1
X99 g1890 68 INV_X1
X100 g2584 69 INV_X1
X101 g633 70 INV_X1
X102 g1319 71 INV_X1
X103 g2912 72 INV_X1
X104 g3136 73 INV_X1
X105 g3139 74 INV_X1
X106 g3229 75 INV_X1
X107 II20553 g13418 INV_X1
X108 II20601 g13434 INV_X1
X109 II20649 g13450 INV_X1
X110 II20697 g13466 INV_X1
X111 g3036 76 INV_X1
X112 g3234 77 INV_X1
X113 g10730 78 INV_X1
X114 II18423 79 INV_X1
X115 g10749 80 INV_X1
X116 II18441 81 INV_X1
X117 g10767 82 INV_X1
X118 g10773 83 INV_X1
X119 g3230 84 INV_X1
X120 g309 85 INV_X1
X121 g1690 86 INV_X1
X122 g10735 87 INV_X1
X123 g10754 88 INV_X1
X124 g10694 89 INV_X1
X125 g10714 90 INV_X1
X126 g11069 91 INV_X1
X127 g11190 92 INV_X1
X128 g11481 93 INV_X1
X129 g171 94 INV_X1
X130 g176 95 INV_X1
X131 g699 96 INV_X1
X132 g861 97 INV_X1
X133 g863 98 INV_X1
X134 g1526 99 INV_X1
X135 g1533 100 INV_X1
X136 g1554 101 INV_X1
X137 g2217 102 INV_X1
X138 g2224 103 INV_X1
X139 g174 104 INV_X1
X140 g700 105 INV_X1
X141 g859 106 INV_X1
X142 g864 107 INV_X1
X143 g1385 108 INV_X1
X144 g1534 109 INV_X1
X145 g1555 110 INV_X1
X146 g1557 111 INV_X1
X147 g2225 112 INV_X1
X148 g2248 113 INV_X1
X149 g428 114 INV_X1
X150 g698 115 INV_X1
X151 g862 116 INV_X1
X152 g1386 117 INV_X1
X153 g1532 118 INV_X1
X154 g1553 119 INV_X1
X155 g1558 120 INV_X1
X156 g2079 121 INV_X1
X157 g2223 122 INV_X1
X158 g2249 123 INV_X1
X159 g2251 124 INV_X1
X160 g1115 125 INV_X1
X161 g1384 126 INV_X1
X162 g1556 127 INV_X1
X163 g2080 128 INV_X1
X164 g2247 129 INV_X1
X165 g2252 130 INV_X1
X166 g711 131 INV_X1
X167 g1809 132 INV_X1
X168 g2078 133 INV_X1
X169 g2250 134 INV_X1
X170 g2776 135 INV_X1
X171 g2801 136 INV_X1
X172 g576 137 INV_X1
X173 g712 138 INV_X1
X174 g714 139 INV_X1
X175 g1397 140 INV_X1
X176 g2086 141 INV_X1
X177 g2206 142 INV_X1
X178 g2239 143 INV_X1
X179 g2503 144 INV_X1
X180 g2777 145 INV_X1
X181 g2779 146 INV_X1
X182 g577 147 INV_X1
X183 g579 148 INV_X1
X184 g710 149 INV_X1
X185 g715 150 INV_X1
X186 g717 151 INV_X1
X187 g1262 152 INV_X1
X188 g1398 153 INV_X1
X189 g1400 154 INV_X1
X190 g2091 155 INV_X1
X191 g2207 156 INV_X1
X192 g2240 157 INV_X1
X193 g2775 158 INV_X1
X194 g2780 159 INV_X1
X195 g2782 160 INV_X1
X196 g575 161 INV_X1
X197 g580 162 INV_X1
X198 g713 163 INV_X1
X199 g718 164 INV_X1
X200 g720 165 INV_X1
X201 g1263 166 INV_X1
X202 g1396 167 INV_X1
X203 g1401 168 INV_X1
X204 g1403 169 INV_X1
X205 g1956 170 INV_X1
X206 g2092 171 INV_X1
X207 g2094 172 INV_X1
X208 g2205 173 INV_X1
X209 g2238 174 INV_X1
X210 g2778 175 INV_X1
X211 g2783 176 INV_X1
X212 g2785 177 INV_X1
X213 g578 178 INV_X1
X214 g716 179 INV_X1
X215 g721 180 INV_X1
X216 g1261 181 INV_X1
X217 g1268 182 INV_X1
X218 g1399 183 INV_X1
X219 g1404 184 INV_X1
X220 g1406 185 INV_X1
X221 g1957 186 INV_X1
X222 g2090 187 INV_X1
X223 g2095 188 INV_X1
X224 g2097 189 INV_X1
X225 g2650 190 INV_X1
X226 g2781 191 INV_X1
X227 g2786 192 INV_X1
X228 g2806 193 INV_X1
X229 g449 194 INV_X1
X230 g719 195 INV_X1
X231 g1269 196 INV_X1
X232 g1402 197 INV_X1
X233 g1407 198 INV_X1
X234 g1955 199 INV_X1
X235 g1962 200 INV_X1
X236 g2093 201 INV_X1
X237 g2098 202 INV_X1
X238 g2100 203 INV_X1
X239 g2651 204 INV_X1
X240 g2784 205 INV_X1
X241 g2791 206 INV_X1
X242 g2807 207 INV_X1
X243 g1136 208 INV_X1
X244 g1267 209 INV_X1
X245 g1405 210 INV_X1
X246 g1963 211 INV_X1
X247 g2096 212 INV_X1
X248 g2101 213 INV_X1
X249 g2649 214 INV_X1
X250 g2654 215 INV_X1
X251 g2792 216 INV_X1
X252 g2805 217 INV_X1
X253 g1830 218 INV_X1
X254 g1961 219 INV_X1
X255 g2099 220 INV_X1
X256 g2790 221 INV_X1
X257 g2797 222 INV_X1
X258 g738 223 INV_X1
X259 g2524 224 INV_X1
X260 g2798 225 INV_X1
X261 g739 226 INV_X1
X262 g1424 227 INV_X1
X263 g2796 228 INV_X1
X264 g737 229 INV_X1
X265 g1425 230 INV_X1
X266 g2118 231 INV_X1
X267 g2817 232 INV_X1
X268 g1423 233 INV_X1
X269 g2119 234 INV_X1
X270 g2812 235 INV_X1
X271 g2117 236 INV_X1
X272 g2813 237 INV_X1
X273 g3040 238 INV_X1
X274 g2811 239 INV_X1
X275 g507 240 INV_X1
X276 g2581 241 INV_X1
X277 g484 242 INV_X1
X278 g1171 243 INV_X1
X279 g1865 244 INV_X1
X280 g2559 245 INV_X1
X281 g312 246 INV_X1
X282 g313 247 INV_X1
X283 g999 248 INV_X1
X284 g314 249 INV_X1
X285 g315 250 INV_X1
X286 g403 251 INV_X1
X287 g1000 252 INV_X1
X288 g1693 253 INV_X1
X289 g316 254 INV_X1
X290 g318 255 INV_X1
X291 g404 256 INV_X1
X292 g1001 257 INV_X1
X293 g1002 258 INV_X1
X294 g1694 259 INV_X1
X295 g317 260 INV_X1
X296 g319 261 INV_X1
X297 g402 262 INV_X1
X298 g1003 263 INV_X1
X299 g1005 264 INV_X1
X300 g1091 265 INV_X1
X301 g1695 266 INV_X1
X302 g1784 267 INV_X1
X303 g320 268 INV_X1
X304 g1004 269 INV_X1
X305 g1006 270 INV_X1
X306 g1697 271 INV_X1
X307 g1699 272 INV_X1
X308 g1785 273 INV_X1
X309 g2390 274 INV_X1
X310 g1007 275 INV_X1
X311 g1700 276 INV_X1
X312 g1783 277 INV_X1
X313 g2391 278 INV_X1
X314 g1701 279 INV_X1
X315 g2392 280 INV_X1
X316 g2394 281 INV_X1
X317 g659 282 INV_X1
X318 g1345 283 INV_X1
X319 g1703 284 INV_X1
X320 g2039 285 INV_X1
X321 g2397 286 INV_X1
X322 g2733 287 INV_X1
X323 g478 288 INV_X1
X324 g1165 289 INV_X1
X325 g1859 290 INV_X1
X326 g2553 291 INV_X1
X327 g487 292 INV_X1
X328 g145 293 INV_X1
X329 g1174 294 INV_X1
X330 g2930 295 INV_X1
X331 g146 296 INV_X1
X332 g148 297 INV_X1
X333 g1868 298 INV_X1
X334 g3197 299 INV_X1
X335 g144 300 INV_X1
X336 g149 301 INV_X1
X337 g172 302 INV_X1
X338 g1527 303 INV_X1
X339 g2218 304 INV_X1
X340 g2562 305 INV_X1
X341 g147 306 INV_X1
X342 g173 307 INV_X1
X343 g175 308 INV_X1
X344 g860 309 INV_X1
X345 g1528 310 INV_X1
X346 g2219 311 INV_X1
X347 g11501 312 INV_X1
X348 g11507 313 INV_X1
X349 g1045 314 INV_X1
X350 g1075 315 INV_X1
X351 g11555 316 INV_X1
X352 g11561 317 INV_X1
X353 g11582 318 INV_X1
X354 g11588 319 INV_X1
X355 II20529 g13410 INV_X1
X356 II20532 g13411 INV_X1
X357 II20535 g13412 INV_X1
X358 II20538 g13413 INV_X1
X359 II20541 g13414 INV_X1
X360 II20544 g13415 INV_X1
X361 II20547 g13416 INV_X1
X362 II20550 g13417 INV_X1
X363 II20577 g13426 INV_X1
X364 II20580 g13427 INV_X1
X365 II20583 g13428 INV_X1
X366 II20586 g13429 INV_X1
X367 II20589 g13430 INV_X1
X368 II20592 g13431 INV_X1
X369 II20595 g13432 INV_X1
X370 II20598 g13433 INV_X1
X371 II20625 g13442 INV_X1
X372 II20628 g13443 INV_X1
X373 II20631 g13444 INV_X1
X374 II20634 g13445 INV_X1
X375 II20637 g13446 INV_X1
X376 II20640 g13447 INV_X1
X377 II20643 g13448 INV_X1
X378 II20646 g13449 INV_X1
X379 II20673 g13458 INV_X1
X380 II20676 g13459 INV_X1
X381 II20679 g13460 INV_X1
X382 II20682 g13461 INV_X1
X383 II20685 g13462 INV_X1
X384 II20688 g13463 INV_X1
X385 II20691 g13464 INV_X1
X386 II20694 g13465 INV_X1
X387 g2896 g2900 320 OR2_X1
X388 g2892 g2903 g2908 320 321 NOR4_X1
X389 g2892 g2903 g2908 320 322 OR4_X1
X390 61 g2920 g2912 g2917 323 OR4_X1
X391 56 g2888 322 323 g20164 NOR4_X1
X392 g276 g417 g420 g405 g423 g3306 324 AOI222_X1
X393 324 g14885 INV_X1
X394 g1092 g1107 325 NAND2_X1
X395 g5473 g1104 g1110 g1088 326 AOI22_X1
X396 325 326 327 AND2_X1
X397 327 g14966 INV_X1
X398 g11114 g1801 328 NAND2_X1
X399 g1657 g1798 g1804 g1782 329 AOI22_X1
X400 328 329 330 AND2_X1
X401 330 g15055 INV_X1
X402 g11182 g2495 331 NAND2_X1
X403 g2351 g2492 g2498 g2476 332 AOI22_X1
X404 331 332 333 AND2_X1
X405 333 g15151 INV_X1
X406 25 g544 334 NOR2_X1
X407 g499 g548 16 335 AOI21_X1
X408 334 335 g21851 NOR2_X1
X409 29 g305 II18311 336 NAND3_X1
X410 336 II18311 g298 g22979 OAI21_X1
X411 g10021 g520 g13336 337 NOR3_X1
X412 337 240 g13336 g22551 AOI21_X1
X413 g10052 334 335 338 OAI21_X1
X414 g1186 62 19 339 AOI21_X1
X415 g1186 g1230 338 339 340 AOI22_X1
X416 340 g26534 INV_X1
X417 g1092 g8286 341 OR2_X1
X418 II18405 341 g22979 32 342 OAI211_X1
X419 342 II18405 g985 g27132 OAI21_X1
X420 15 g22551 343 NOR2_X1
X421 g11603 g1193 344 NAND2_X1
X422 65 g1206 g10049 345 OAI21_X1
X423 344 345 343 g26983 OAI21_X1
X424 26 g1924 346 OR2_X1
X425 g1880 g1928 22 347 AOI21_X1
X426 347 340 22 348 OAI21_X1
X427 346 348 g29113 AND2_X1
X428 35 g1686 349 NAND2_X1
X429 79 g27132 g11114 350 AOI21_X1
X430 g1679 79 349 350 g29359 AOI22_X1
X431 g1900 g26983 g10158 351 MUX2_X1
X432 351 g1887 g11633 g29318 MUX2_X1
X433 84 g3233 352 AND2_X1
X434 84 g3233 353 NAND2_X1
X435 93 g11332 354 NAND2_X1
X436 g3198 g3194 g3191 g3197 355 NOR4_X1
X437 g11069 355 356 NAND2_X1
X438 g11190 354 356 357 NOR3_X1
X439 g11190 354 356 358 OR3_X1
X440 352 358 g3123 g23919 OAI21_X1
X441 g23919 g28313 INV_X1
X442 92 g11481 g11332 359 NOR3_X1
X443 91 355 360 AND2_X1
X444 359 360 361 AND2_X1
X445 353 357 g3126 361 g3112 362 AOI221_X1
X446 362 g28312 INV_X1
X447 g3125 358 363 OR2_X1
X448 353 361 g3110 364 AOI21_X1
X449 363 364 g28696 AND2_X1
X450 g28696 II37635 INV_X1
X451 353 357 g3124 361 g3111 365 AOI221_X1
X452 365 g28310 INV_X1
X453 g2984 g2985 366 NOR2_X1
X454 366 367 INV_X1
X455 g2992 g2991 368 NOR2_X1
X456 368 369 INV_X1
X457 g3147 366 II21420 370 AOI21_X1
X458 g3142 368 II21420 371 OAI21_X1
X459 370 371 372 NAND2_X1
X460 II21420 g3142 g3147 g3097 373 NAND4_X1
X461 372 373 g25489 NAND2_X1
X462 g3198 g3194 g3191 299 374 NOR4_X1
X463 91 374 375 NAND2_X1
X464 375 376 INV_X1
X465 g11190 354 375 377 NOR3_X1
X466 g11190 93 g11332 378 OR3_X1
X467 375 378 379 NOR2_X1
X468 g11481 g11332 380 NAND2_X1
X469 g11190 375 380 381 NOR3_X1
X470 g11190 376 382 NAND2_X1
X471 380 382 383 NOR2_X1
X472 354 382 384 NOR2_X1
X473 92 354 356 385 NOR3_X1
X474 g11190 g11481 g11332 386 NOR3_X1
X475 360 386 387 NAND2_X1
X476 g11069 374 388 NAND2_X1
X477 g11190 354 388 389 NOR3_X1
X478 g11069 355 359 390 AND3_X1
X479 92 93 g11332 391 OR3_X1
X480 375 391 392 NOR2_X1
X481 g11190 380 388 393 NOR3_X1
X482 359 376 394 AND2_X1
X483 378 388 395 NOR2_X1
X484 376 386 396 AND2_X1
X485 g11069 374 386 397 AND3_X1
X486 352 366 387 398 OAI21_X1
X487 398 361 g3120 g3142 385 399 AOI221_X1
X488 g3132 357 390 g3136 400 AOI22_X1
X489 g3211 379 394 g3086 401 AOI22_X1
X490 399 400 401 402 AND3_X1
X491 g3092 383 384 g3091 392 g3087 403 AOI222_X1
X492 g3094 395 397 g3093 404 AOI22_X1
X493 g3085 381 389 g3095 405 AOI22_X1
X494 g10099 393 396 g3210 406 AOI22_X1
X495 404 405 406 407 NAND3_X1
X496 407 377 g3084 408 AOI21_X1
X497 402 403 408 g28695 NAND3_X1
X498 g3114 361 409 NAND2_X1
X499 g3134 390 410 NAND2_X1
X500 g3098 379 395 g3106 411 AOI22_X1
X501 353 381 g3100 412 AOI21_X1
X502 g3107 389 393 g3108 413 AOI22_X1
X503 g3101 394 397 g3105 414 AOI22_X1
X504 411 412 413 414 415 AND4_X1
X505 g3147 385 396 g3097 g3099 377 416 AOI222_X1
X506 g3104 383 392 g3102 417 AOI22_X1
X507 417 418 INV_X1
X508 410 387 368 g3128 358 419 OAI221_X1
X509 418 419 g3103 384 420 AOI211_X1
X510 409 415 416 420 g29166 AND4_X1
X511 g29166 g28200 INV_X1
X512 g3161 377 394 g3167 390 g3135 421 AOI222_X1
X513 g3113 361 397 g3179 422 AOI22_X1
X514 g3176 383 384 g3173 423 AOI22_X1
X515 353 379 g3158 392 g3170 424 AOI221_X1
X516 g3164 381 389 g3185 393 g3088 425 AOI222_X1
X517 g3127 357 395 g3182 396 g3155 426 AOI222_X1
X518 423 424 425 426 427 AND4_X1
X519 421 422 427 g28693 NAND3_X1
X520 g11190 g11332 356 388 391 II17849 428 OAI33_X1
X521 353 428 386 360 429 AOI211_X1
X522 g3139 390 430 NAND2_X1
X523 g3133 358 431 NOR2_X1
X524 II21420 385 432 NAND2_X1
X525 388 367 g3120 g3114 369 433 AOI221_X1
X526 431 433 359 434 AOI21_X1
X527 429 430 432 434 g29656 AND4_X1
X528 g29656 g29120 INV_X1
X529 27 g2618 435 NOR2_X1
X530 g10179 346 348 436 NAND3_X1
X531 g2574 g2622 24 437 AOI21_X1
X532 435 436 437 g30072 AOI21_X1
X533 g3238 g14 438 XOR2_X1
X534 g2 g3237 439 XNOR2_X1
X535 438 439 440 XNOR2_X1
X536 g20 g23 441 XOR2_X1
X537 g11 g17 442 XNOR2_X1
X538 441 442 443 XNOR2_X1
X539 440 443 444 XNOR2_X1
X540 g2990 444 g21964 XNOR2_X1
X541 g3247 g3248 445 XOR2_X1
X542 g27 g30 446 XNOR2_X1
X543 445 446 447 XNOR2_X1
X544 g3251 g3252 448 XOR2_X1
X545 g3249 g3250 449 XNOR2_X1
X546 448 449 450 XNOR2_X1
X547 447 450 451 XNOR2_X1
X548 g3083 451 g21966 XNOR2_X1
X549 g3002 g3013 452 NOR2_X1
X550 g3024 g3006 g3010 453 NOR3_X1
X551 452 453 454 NAND2_X1
X552 g10021 g617 g620 g10018 g545 g614 455 AOI222_X1
X553 455 456 INV_X1
X554 g10021 g493 g496 g10018 g545 g490 457 AOI222_X1
X555 g510 457 458 AND2_X1
X556 454 456 458 459 AOI21_X1
X557 g10021 g608 g611 g10018 g545 g605 460 AOI222_X1
X558 460 461 INV_X1
X559 457 460 462 NOR2_X1
X560 459 462 g23923 NOR2_X1
X561 g10049 g1303 g1306 g10127 g10052 g1300 463 AOI222_X1
X562 463 464 INV_X1
X563 g10049 g1180 g1183 g10127 g10052 g1177 465 AOI222_X1
X564 g1196 465 466 AND2_X1
X565 454 464 466 467 AOI21_X1
X566 g10049 g1294 g1297 g10127 g10052 g1291 468 AOI222_X1
X567 468 469 INV_X1
X568 465 468 470 NOR2_X1
X569 467 470 g23955 NOR2_X1
X570 g10158 g1997 g2000 g10067 g10070 g1994 471 AOI222_X1
X571 471 472 INV_X1
X572 g10158 g1874 g1877 g10067 g10070 g1871 473 AOI222_X1
X573 g1890 473 474 AND2_X1
X574 454 472 474 475 AOI21_X1
X575 g10158 g1988 g1991 g10067 g10070 g1985 476 AOI222_X1
X576 476 477 INV_X1
X577 473 476 478 NOR2_X1
X578 475 478 g23984 NOR2_X1
X579 g10090 g2691 g2694 g10087 g10179 g2688 479 AOI222_X1
X580 479 480 INV_X1
X581 g10090 g2568 g2571 g10087 g10179 g2565 481 AOI222_X1
X582 g2584 481 482 AND2_X1
X583 454 480 482 483 AOI21_X1
X584 g10090 g2682 g2685 g10087 g10179 g2679 484 AOI222_X1
X585 484 485 INV_X1
X586 481 484 486 NOR2_X1
X587 483 486 g24014 NOR2_X1
X588 g10021 g567 g489 g10018 g545 g565 g12457 AOI222_X1
X589 g12457 487 INV_X1
X590 g10049 g1253 g1176 g10127 g10052 g1251 g12467 AOI222_X1
X591 g12467 488 INV_X1
X592 g10158 g1947 g1870 g10067 g10070 g1945 g12482 AOI222_X1
X593 g12482 489 INV_X1
X594 g10021 g571 g573 g10018 g545 g569 g12487 AOI222_X1
X595 g12487 490 INV_X1
X596 g10090 g2641 g2564 g10087 g10179 g2639 g12499 AOI222_X1
X597 g12499 491 INV_X1
X598 g10049 g1257 g1259 g10127 g10052 g1255 g12507 AOI222_X1
X599 g12507 492 INV_X1
X600 g10158 g1951 g1953 g10067 g10070 g1949 g12524 AOI222_X1
X601 g12524 493 INV_X1
X602 g10090 g2645 g2647 g10087 g10179 g2643 g12539 AOI222_X1
X603 g12539 494 INV_X1
X604 g510 78 495 NOR2_X1
X605 66 g10730 496 NAND2_X1
X606 g563 g10766 497 NOR2_X1
X607 497 335 334 16 g499 498 OAI221_X1
X608 498 499 INV_X1
X609 g623 139 150 g626 163 g3366 500 AOI222_X1
X610 g623 151 164 g626 179 g3366 501 AOI222_X1
X611 41 g702 g703 43 g701 46 502 OAI222_X1
X612 41 g732 g733 43 g731 46 503 OAI222_X1
X613 g623 96 105 g626 115 g3366 504 AOI222_X1
X614 43 g727 505 NOR2_X1
X615 41 g726 g725 46 506 OAI22_X1
X616 505 506 507 NOR2_X1
X617 41 g705 g706 43 g704 46 508 OAI222_X1
X618 g623 165 180 g626 195 g3366 509 AOI222_X1
X619 g623 131 138 g626 149 g3366 510 AOI222_X1
X620 41 g738 g739 43 g737 46 511 OAI222_X1
X621 41 g723 g724 43 g722 46 512 OAI222_X1
X622 41 g708 g709 43 g707 46 513 OAI222_X1
X623 41 g735 g734 46 514 OAI22_X1
X624 503 509 510 512 515 NAND4_X1
X625 502 508 516 NAND2_X1
X626 500 511 513 517 NAND3_X1
X627 501 504 505 506 518 OAI211_X1
X628 515 516 517 518 519 NOR4_X1
X629 515 516 517 518 520 OR4_X1
X630 514 519 521 NOR2_X1
X631 521 g736 43 522 OAI21_X1
X632 g499 522 523 AND2_X1
X633 495 498 524 NAND2_X1
X634 495 498 523 525 OAI21_X1
X635 g510 78 40 526 AOI21_X1
X636 334 497 527 AND2_X1
X637 334 497 528 NAND2_X1
X638 528 500 461 529 AOI21_X1
X639 529 500 461 530 OAI21_X1
X640 499 526 531 NAND2_X1
X641 g10730 66 40 532 AOI21_X1
X642 532 530 526 g531 531 533 OAI221_X1
X643 525 533 g29455 NAND2_X1
X644 499 523 534 NAND2_X1
X645 495 534 535 NAND2_X1
X646 528 509 461 536 AOI21_X1
X647 536 509 461 537 OAI21_X1
X648 532 537 66 g529 531 538 OAI221_X1
X649 535 538 g29453 NAND2_X1
X650 528 510 456 539 AOI21_X1
X651 539 510 456 540 OAI21_X1
X652 532 540 66 g532 531 541 OAI221_X1
X653 535 541 g29456 NAND2_X1
X654 507 519 542 NOR2_X1
X655 461 542 543 XNOR2_X1
X656 527 543 544 NAND2_X1
X657 544 545 INV_X1
X658 460 502 520 546 NAND3_X1
X659 460 502 520 547 AOI21_X1
X660 528 547 548 NOR2_X1
X661 546 548 549 NAND2_X1
X662 532 549 526 531 g536 550 OAI221_X1
X663 550 545 496 g29459 OAI21_X1
X664 512 520 551 AND2_X1
X665 527 551 455 552 OAI21_X1
X666 552 551 455 553 AOI21_X1
X667 528 504 456 554 AOI21_X1
X668 554 504 456 555 OAI21_X1
X669 532 555 526 531 g537 556 OAI221_X1
X670 556 553 496 g29460 OAI21_X1
X671 g533 531 557 NOR2_X1
X672 513 520 558 NAND2_X1
X673 461 558 559 XNOR2_X1
X674 528 559 560 NOR2_X1
X675 526 528 559 561 OR3_X1
X676 532 561 562 NAND2_X1
X677 557 562 524 g29457 AOI21_X1
X678 528 501 456 563 AOI21_X1
X679 563 501 456 564 OAI21_X1
X680 532 564 526 531 g530 565 OAI221_X1
X681 525 565 g29454 NAND2_X1
X682 g534 531 566 NOR2_X1
X683 508 520 567 NAND2_X1
X684 456 567 568 XNOR2_X1
X685 528 568 569 NOR2_X1
X686 526 528 568 570 OR3_X1
X687 532 570 571 NAND2_X1
X688 566 571 524 g29458 AOI21_X1
X689 549 555 572 XNOR2_X1
X690 560 568 569 559 573 AOI22_X1
X691 540 564 574 XNOR2_X1
X692 530 537 575 XNOR2_X1
X693 574 575 576 XNOR2_X1
X694 573 576 577 XNOR2_X1
X695 572 577 578 XNOR2_X1
X696 g541 g538 g3229 579 MUX2_X1
X697 g525 66 78 579 580 NAND4_X1
X698 78 543 553 581 AOI21_X1
X699 581 553 545 582 OAI21_X1
X700 582 580 498 66 578 g29655 OAI221_X1
X701 67 g10749 583 NAND2_X1
X702 g1249 g10772 584 NOR2_X1
X703 340 584 585 AND2_X1
X704 585 586 INV_X1
X705 44 g1418 g1419 47 g1417 50 587 OAI222_X1
X706 44 g1394 g1395 47 g1393 50 588 OAI222_X1
X707 g1309 154 168 g1312 183 g1315 589 AOI222_X1
X708 g1309 185 198 g1312 210 g1315 590 AOI222_X1
X709 587 588 589 590 591 NAND4_X1
X710 44 g1391 g1392 47 g1390 50 592 OAI222_X1
X711 44 g1424 g1425 47 g1423 50 593 OAI222_X1
X712 44 g1388 g1389 47 g1387 50 594 OAI222_X1
X713 g1309 140 153 g1312 167 g1315 595 AOI222_X1
X714 592 593 594 595 596 NAND4_X1
X715 g1309 108 117 g1312 126 g1315 597 AOI222_X1
X716 44 g1412 g1413 47 g1411 50 598 OAI222_X1
X717 44 g1409 g1410 47 g1408 50 599 OAI222_X1
X718 g1309 169 184 g1312 197 g1315 600 AOI222_X1
X719 597 598 599 600 601 NAND4_X1
X720 591 596 601 602 NOR3_X1
X721 591 596 601 603 OR3_X1
X722 44 g1421 g1422 47 g1420 50 604 OAI222_X1
X723 g1186 602 604 605 OAI21_X1
X724 583 585 606 NOR2_X1
X725 583 605 607 NOR2_X1
X726 606 607 608 NOR2_X1
X727 g1211 80 609 NAND2_X1
X728 g1196 80 609 610 AOI21_X1
X729 g1186 585 611 AND2_X1
X730 468 589 612 XNOR2_X1
X731 611 612 613 NAND2_X1
X732 585 610 614 NAND2_X1
X733 609 g10749 67 615 OAI21_X1
X734 615 613 610 g1217 614 616 OAI221_X1
X735 608 616 g29974 NAND2_X1
X736 67 g10749 586 605 617 OAI211_X1
X737 468 590 618 XNOR2_X1
X738 611 618 619 NAND2_X1
X739 615 619 610 614 g1215 620 OAI221_X1
X740 617 620 g29972 NAND2_X1
X741 463 595 621 XNOR2_X1
X742 611 621 622 NAND2_X1
X743 615 622 610 614 g1218 623 OAI221_X1
X744 617 623 g29975 NAND2_X1
X745 598 603 624 NAND2_X1
X746 468 624 625 XNOR2_X1
X747 611 625 626 AND2_X1
X748 594 603 627 NAND2_X1
X749 468 627 628 XNOR2_X1
X750 611 628 629 NAND2_X1
X751 615 629 610 614 g1222 630 OAI221_X1
X752 630 626 583 g29978 OAI21_X1
X753 599 603 631 NAND2_X1
X754 463 631 632 XNOR2_X1
X755 611 632 633 AND2_X1
X756 463 597 634 XNOR2_X1
X757 611 634 635 NAND2_X1
X758 615 635 610 614 g1223 636 OAI221_X1
X759 636 633 583 g29979 OAI21_X1
X760 g1219 614 637 NOR2_X1
X761 588 603 638 NAND2_X1
X762 468 638 639 XNOR2_X1
X763 611 639 640 NAND2_X1
X764 g1196 611 639 641 NAND3_X1
X765 606 615 641 642 AOI21_X1
X766 637 642 g29976 NOR2_X1
X767 463 600 643 XNOR2_X1
X768 611 643 644 NAND2_X1
X769 615 644 610 614 g1216 645 OAI221_X1
X770 608 645 g29973 NAND2_X1
X771 g1220 614 646 NOR2_X1
X772 592 603 647 NAND2_X1
X773 463 647 648 XNOR2_X1
X774 611 648 649 NAND2_X1
X775 g1196 611 648 650 NAND3_X1
X776 606 615 650 651 AOI21_X1
X777 646 651 g29977 NOR2_X1
X778 634 635 629 652 MUX2_X1
X779 621 622 613 653 MUX2_X1
X780 652 653 654 XNOR2_X1
X781 640 648 649 639 655 OAI22_X1
X782 619 643 644 618 656 OAI22_X1
X783 655 656 657 XNOR2_X1
X784 654 657 658 XNOR2_X1
X785 80 625 633 659 AOI21_X1
X786 659 633 626 660 OAI21_X1
X787 g1227 g1224 g3229 661 MUX2_X1
X788 g1211 67 80 661 662 NAND4_X1
X789 660 662 586 658 67 g30119 OAI221_X1
X790 g1890 82 663 NOR2_X1
X791 g1943 g10783 g29113 664 NOR3_X1
X792 g1943 g10783 g29113 665 OR3_X1
X793 g2003 172 188 g2006 201 g2009 666 AOI222_X1
X794 g2003 203 213 g2006 220 g2009 667 AOI222_X1
X795 48 g2085 g2084 53 668 OAI22_X1
X796 668 141 g2006 669 AOI21_X1
X797 48 g2085 g2086 51 g2084 53 670 OAI222_X1
X798 g2003 189 202 g2006 212 g2009 671 AOI222_X1
X799 666 667 670 671 672 NAND4_X1
X800 48 g2082 g2083 51 g2081 53 673 OAI222_X1
X801 48 g2103 g2104 51 g2102 53 674 OAI222_X1
X802 g2003 121 128 g2006 133 g2009 675 AOI222_X1
X803 48 g2088 g2089 51 g2087 53 676 OAI222_X1
X804 673 674 675 676 677 NAND4_X1
X805 48 g2112 g2113 51 g2111 53 678 OAI222_X1
X806 48 g2118 g2119 51 g2117 53 679 OAI222_X1
X807 g2003 155 171 g2006 187 g2009 680 AOI222_X1
X808 48 g2106 g2107 51 g2105 53 681 OAI222_X1
X809 678 679 680 681 682 NAND4_X1
X810 672 677 682 683 NOR3_X1
X811 672 677 682 684 OR3_X1
X812 48 g2115 g2116 51 g2114 53 685 OAI222_X1
X813 g1880 683 685 686 OAI21_X1
X814 686 687 INV_X1
X815 663 665 688 NAND2_X1
X816 663 665 687 689 OAI21_X1
X817 g1890 82 45 690 AOI21_X1
X818 26 g1943 g10783 g1924 691 NOR4_X1
X819 691 692 INV_X1
X820 476 666 693 XNOR2_X1
X821 691 693 694 NAND2_X1
X822 664 690 695 NAND2_X1
X823 g10767 68 45 696 AOI21_X1
X824 696 694 690 g1911 695 697 OAI221_X1
X825 689 697 g30910 NAND2_X1
X826 663 665 686 698 OAI21_X1
X827 476 667 699 XNOR2_X1
X828 691 699 700 NAND2_X1
X829 696 700 690 695 g1909 701 OAI221_X1
X830 698 701 g30908 NAND2_X1
X831 471 680 702 XNOR2_X1
X832 691 702 703 NAND2_X1
X833 696 703 690 695 g1912 704 OAI221_X1
X834 698 704 g30911 NAND2_X1
X835 681 684 705 NAND2_X1
X836 477 705 706 XNOR2_X1
X837 663 692 706 707 OAI21_X1
X838 673 684 708 NAND2_X1
X839 476 708 709 XNOR2_X1
X840 691 709 710 NAND2_X1
X841 696 710 690 695 g1916 711 OAI221_X1
X842 707 711 g30914 NAND2_X1
X843 674 684 712 NAND2_X1
X844 471 712 713 XNOR2_X1
X845 691 713 714 NAND2_X1
X846 663 714 715 NAND2_X1
X847 471 675 716 XNOR2_X1
X848 691 716 717 NAND2_X1
X849 696 717 690 695 g1917 718 OAI221_X1
X850 715 718 g30915 NAND2_X1
X851 g1913 695 719 NOR2_X1
X852 676 684 720 NAND2_X1
X853 476 720 721 XNOR2_X1
X854 691 721 722 NAND2_X1
X855 696 722 68 723 OAI21_X1
X856 719 723 688 g30912 AOI21_X1
X857 471 671 724 XNOR2_X1
X858 691 724 725 NAND2_X1
X859 696 725 690 695 g1910 726 OAI221_X1
X860 689 726 g30909 NAND2_X1
X861 g1914 695 727 NOR2_X1
X862 670 684 728 NAND2_X1
X863 471 728 729 XNOR2_X1
X864 691 729 730 NAND2_X1
X865 696 730 68 731 OAI21_X1
X866 727 731 688 g30913 AOI21_X1
X867 716 717 710 732 MUX2_X1
X868 702 703 694 733 MUX2_X1
X869 732 733 734 XNOR2_X1
X870 722 729 730 721 735 OAI22_X1
X871 700 724 725 699 736 OAI22_X1
X872 735 736 737 XNOR2_X1
X873 734 737 738 XNOR2_X1
X874 714 706 692 739 OAI21_X1
X875 g10767 739 714 706 740 OAI211_X1
X876 g1921 g1918 g3229 741 MUX2_X1
X877 g1905 68 82 741 742 NAND4_X1
X878 740 742 665 738 68 g30940 OAI221_X1
X879 g2584 83 743 NOR2_X1
X880 69 g10773 744 NAND2_X1
X881 g2637 g10788 g30072 745 OR3_X1
X882 52 g2788 g2789 54 g2787 55 746 OAI222_X1
X883 52 g2794 g2795 54 g2793 55 747 OAI222_X1
X884 g2697 146 159 g2700 175 g2703 748 AOI222_X1
X885 g2697 206 216 g2700 221 g2703 749 AOI222_X1
X886 g2697 135 145 g2700 158 g2703 750 AOI222_X1
X887 g2697 222 225 g2700 228 g2703 751 AOI222_X1
X888 52 g2773 g2774 54 g2772 55 752 OAI222_X1
X889 g2697 160 176 g2700 191 g2703 753 AOI222_X1
X890 g2697 193 207 g2700 217 g2703 754 AOI222_X1
X891 g2697 235 237 g2700 239 g2703 755 AOI222_X1
X892 g2697 177 192 g2700 205 g2703 756 AOI222_X1
X893 52 g2800 g2799 55 757 OAI22_X1
X894 757 136 g2700 758 AOI21_X1
X895 52 g2800 g2801 54 g2799 55 759 OAI222_X1
X896 52 g2809 g2808 55 760 OAI22_X1
X897 748 752 754 761 NOR3_X1
X898 750 751 755 762 NOR3_X1
X899 746 747 753 763 NOR3_X1
X900 749 756 759 764 AND3_X1
X901 761 762 763 764 765 AND4_X1
X902 760 765 766 NOR2_X1
X903 766 g2810 54 767 OAI21_X1
X904 g2574 767 768 AND2_X1
X905 g2574 767 769 NAND2_X1
X906 743 745 770 NAND2_X1
X907 743 745 768 771 OAI21_X1
X908 g2584 83 49 772 AOI21_X1
X909 772 773 INV_X1
X910 27 g2637 g10788 g2618 774 NOR4_X1
X911 485 746 775 XNOR2_X1
X912 774 775 776 NAND2_X1
X913 745 773 777 OR2_X1
X914 g10773 69 49 778 AOI21_X1
X915 778 776 772 g2605 777 779 OAI221_X1
X916 771 779 g30982 NAND2_X1
X917 743 745 769 780 OAI21_X1
X918 485 747 781 XNOR2_X1
X919 774 781 782 NAND2_X1
X920 778 782 772 777 g2603 783 OAI221_X1
X921 780 783 g30980 NAND2_X1
X922 479 756 784 XNOR2_X1
X923 774 784 785 NAND2_X1
X924 778 785 772 777 g2606 786 OAI221_X1
X925 780 786 g30983 NAND2_X1
X926 758 765 787 NOR2_X1
X927 485 787 788 XNOR2_X1
X928 774 788 789 AND2_X1
X929 750 765 790 NOR2_X1