* Nangila SPICE Auto-Synthesized Netlist
.SUBCKT INV_X1 A Z
M1 Z A 0 0 NMOS W=0.2u L=0.05u
M2 Z A 1 1 PMOS W=0.4u L=0.05u
.ENDS

.SUBCKT NAND2_X1 A1 A2 Z
M1 Z A1 1 1 PMOS W=0.4u L=0.05u
M2 Z A2 1 1 PMOS W=0.4u L=0.05u
M3 Z A1 int 0 NMOS W=0.2u L=0.05u
M4 int A2 0 0 NMOS W=0.2u L=0.05u
.ENDS

.SUBCKT AND2_X1 A1 A2 Z
X1 A1 A2 Z_bar NAND2_X1
X2 Z_bar Z INV_X1
.ENDS

.SUBCKT NOR2_X1 A1 A2 Z
M1 int1 A1 1 1 PMOS W=0.4u L=0.05u
M2 Z A2 int1 1 PMOS W=0.4u L=0.05u
M3 Z A1 0 0 NMOS W=0.2u L=0.05u
M4 Z A2 0 0 NMOS W=0.2u L=0.05u
.ENDS

.SUBCKT OR2_X1 A1 A2 Z
X1 A1 A2 Z_bar NOR2_X1
X2 Z_bar Z INV_X1
.ENDS

.SUBCKT XOR2_X1 A1 A2 Z
X1 A1 A2 int1 AND2_X1
X2 A1 A2 int2 NOR2_X1
X3 int1 int2 int3 NOR2_X1
X4 int3 Z INV_X1
.ENDS

.SUBCKT XNOR2_X1 A B Z
X1 A B Z_int XOR2_X1
X2 Z_int Z INV_X1
.ENDS

.SUBCKT BUF_X1 A Z
X1 A Z_bar INV_X1
X2 Z_bar Z INV_X1
.ENDS

.SUBCKT OAI21_X1 A B C Z
X1 A B C Z_bar AOI21_X1
X2 Z_bar Z INV_X1
.ENDS

.SUBCKT AOI21_X1 A B C Z
M1 Z A int1 1 PMOS W=0.4u L=0.05u
M2 int1 B 1 1 PMOS W=0.4u L=0.05u
M3 Z C 1 1 PMOS W=0.4u L=0.05u
M4 Z A 0 0 NMOS W=0.2u L=0.05u
M5 Z B 0 0 NMOS W=0.2u L=0.05u
M6 Z C 0 0 NMOS W=0.2u L=0.05u
.ENDS

.SUBCKT NAND3_X1 A1 A2 A3 Z
X1 A1 A2 int1 AND2_X1
X2 int1 A3 Z NAND2_X1
.ENDS

.SUBCKT AND3_X1 A1 A2 A3 Z
X1 A1 A2 A3 Z_bar NAND3_X1
X2 Z_bar Z INV_X1
.ENDS

.SUBCKT NOR3_X1 A1 A2 A3 Z
X1 A1 A2 int1 OR2_X1
X2 int1 A3 Z NOR2_X1
.ENDS

.SUBCKT OR3_X1 A1 A2 A3 Z
X1 A1 A2 A3 Z_bar NOR3_X1
X2 Z_bar Z INV_X1
.ENDS

.SUBCKT NAND4_X1 A1 A2 A3 A4 Z
X1 A1 A2 A3 int1 AND3_X1
X2 int1 A4 Z NAND2_X1
.ENDS

.SUBCKT AND4_X1 A1 A2 A3 A4 Z
X1 A1 A2 A3 A4 Z_bar NAND4_X1
X2 Z_bar Z INV_X1
.ENDS

.SUBCKT NOR4_X1 A1 A2 A3 A4 Z
X1 A1 A2 A3 int1 OR3_X1
X2 int1 A4 Z NOR2_X1
.ENDS

.SUBCKT OR4_X1 A1 A2 A3 A4 Z
X1 A1 A2 A3 A4 Z_bar NOR4_X1
X2 Z_bar Z INV_X1
.ENDS

.SUBCKT AOI22_X1 A B C D Z
X1 A B int1 AND2_X1
X2 C D int2 AND2_X1
X3 int1 int2 Z NOR2_X1
.ENDS

.SUBCKT OAI22_X1 A B C D Z
X1 A B int1 OR2_X1
X2 C D int2 OR2_X1
X3 int1 int2 Z NAND2_X1
.ENDS

.SUBCKT AOI211_X1 A B C D Z
X1 A B int1 AND2_X1
X2 int1 C D Z NOR3_X1
.ENDS

.SUBCKT OAI211_X1 A B C D Z
X1 A B int1 OR2_X1
X2 int1 C D Z NAND3_X1
.ENDS

.SUBCKT OAI33_X1 A B C D E F Z
X1 A B C int1 OR3_X1
X2 D E F int2 OR3_X1
X3 int1 int2 Z NAND2_X1
.ENDS

.SUBCKT AOI33_X1 A B C D E F Z
X1 A B C int1 AND3_X1
X2 D E F int2 AND3_X1
X3 int1 int2 Z NOR2_X1
.ENDS

.SUBCKT MUX2_X1 A B S Z
X1 S S_bar INV_X1
X2 A S_bar int1 AND2_X1
X3 B S int2 AND2_X1
X4 int1 int2 Z OR2_X1
.ENDS

.SUBCKT DFF_X1 D C Q QN
X1 D Q_int INV_X1
X2 Q_int Q INV_X1
X3 Q_int QN INV_X1
.ENDS

.SUBCKT DFFR_X1 D C RN Q QN
X1 D Q_int INV_X1
X2 Q_int Q INV_X1
X3 Q_int QN INV_X1
.ENDS

.SUBCKT DFFS_X1 C D Q QN SN
X1 D Q_int INV_X1
X2 Q_int Q INV_X1
X3 Q_int QN INV_X1
.ENDS

.SUBCKT DFFRS_X1 C D Q QN RN SN
X1 D Q_int INV_X1
X2 Q_int Q INV_X1
X3 Q_int QN INV_X1
.ENDS

* Provide VDD power source explicitly
Vvdd 1 0 1.8

* Auto-extracted Inputs:
V_CK CK 0 1.8
V_D D 0 0.0
V_CK CK 0 1.8
V_g35 g35 0 0.0
V_g36 g36 0 1.8
V_g6744 g6744 0 0.0
V_g6745 g6745 0 1.8
V_g6746 g6746 0 0.0
V_g6747 g6747 0 1.8
V_g6748 g6748 0 0.0
V_g6749 g6749 0 1.8
V_g6750 g6750 0 0.0
V_g6751 g6751 0 1.8
V_g6752 g6752 0 0.0
V_g6753 g6753 0 1.8
V_g84 g84 0 0.0
V_g120 g120 0 1.8
V_g5 g5 0 0.0
V_g113 g113 0 1.8
V_g126 g126 0 0.0
V_g99 g99 0 1.8
V_g53 g53 0 0.0
V_g116 g116 0 1.8
V_g92 g92 0 0.0
V_g56 g56 0 1.8
V_g91 g91 0 0.0
V_g44 g44 0 1.8
V_g57 g57 0 0.0
V_g100 g100 0 1.8
V_g54 g54 0 0.0
V_g124 g124 0 1.8
V_g125 g125 0 0.0
V_g114 g114 0 1.8
V_g134 g134 0 0.0
V_g72 g72 0 1.8
V_g115 g115 0 0.0
V_g135 g135 0 1.8
V_g90 g90 0 0.0
V_g127 g127 0 1.8
V_g64 g64 0 0.0
V_g73 g73 0 1.8

* Yosys Generated Netlist:
* SPICE netlist generated by Yosys 0.62 (git sha1 7326bb7d6641500ecb285c291a54a662cb1e76cf, clang++ 17.0.0 -fPIC -O3)

.SUBCKT dff CK Q D
X0 CK D Q 1 DFF_X1
.ENDS dff

X0 g35 1 INV_X1
X1 g2819 2 INV_X1
X2 I14409 3 INV_X1
X3 g1442 4 INV_X1
X4 g1559 5 INV_X1
X5 g4358 6 INV_X1
X6 g5587 7 INV_X1
X7 g4498 8 INV_X1
X8 g3821 9 INV_X1
X9 g2610 10 INV_X1
X10 g1189 11 INV_X1
X11 g1002 12 INV_X1
X12 g1648 13 INV_X1
X13 g2361 14 INV_X1
X14 g1280 15 INV_X1
X15 g11714 16 INV_X1
X16 g572 17 INV_X1
X17 g4249 18 INV_X1
X18 g767 19 INV_X1
X19 g16540 20 INV_X1
X20 g4621 21 INV_X1
X21 g3065 22 INV_X1
X22 g4966 23 INV_X1
X23 g1242 24 INV_X1
X24 g5575 25 INV_X1
X25 g3684 26 INV_X1
X26 g4515 27 INV_X1
X27 g16960 28 INV_X1
X28 g4601 29 INV_X1
X29 g4722 30 INV_X1
X30 g6398 31 INV_X1
X31 g11744 32 INV_X1
X32 g4087 33 INV_X1
X33 g2342 34 INV_X1
X34 g5421 35 INV_X1
X35 g6605 36 INV_X1
X36 g1083 37 INV_X1
X37 g4076 38 INV_X1
X38 g2567 39 INV_X1
X39 g5873 40 INV_X1
X40 g411 41 INV_X1
X41 g2771 42 INV_X1
X42 g10710 43 INV_X1
X43 g936 44 INV_X1
X44 g1361 45 INV_X1
X45 g73 46 INV_X1
X46 g1740 47 INV_X1
X47 g3957 48 INV_X1
X48 g5366 49 INV_X1
X49 g84 50 INV_X1
X50 g5937 51 INV_X1
X51 g4826 52 INV_X1
X52 g2689 53 INV_X1
X53 g794 54 INV_X1
X54 g3578 55 INV_X1
X55 g3361 56 INV_X1
X56 g11852 57 INV_X1
X57 g5385 58 INV_X1
X58 g6077 59 INV_X1
X59 g518 60 INV_X1
X60 g681 61 INV_X1
X61 g5456 62 INV_X1
X62 g5607 63 INV_X1
X63 g1306 64 INV_X1
X64 g4405 65 INV_X1
X65 g2449 66 INV_X1
X66 g4593 67 INV_X1
X67 g12778 68 INV_X1
X68 g1495 69 INV_X1
X69 g2485 70 INV_X1
X70 g446 71 INV_X1
X71 g2823 72 INV_X1
X72 g1917 73 INV_X1
X73 g504 74 INV_X1
X74 g142 75 INV_X1
X75 g1874 76 INV_X1
X76 g10374 77 INV_X1
X77 I14823 78 INV_X1
X78 g1620 79 INV_X1
X79 g3401 80 INV_X1
X80 g3606 81 INV_X1
X81 g763 82 INV_X1
X82 g3817 83 INV_X1
X83 g758 84 INV_X1
X84 g12779 85 INV_X1
X85 g6419 86 INV_X1
X86 g5747 87 INV_X1
X87 g11753 88 INV_X1
X88 g3558 89 INV_X1
X89 g1890 90 INV_X1
X90 g4146 91 INV_X1
X91 g3610 92 INV_X1
X92 g10428 93 INV_X1
X93 g5406 94 INV_X1
X94 I15727 95 INV_X1
X95 g1500 96 INV_X1
X96 g10233 97 INV_X1
X97 g2384 98 INV_X1
X98 g2303 99 INV_X1
X99 g2779 100 INV_X1
X100 g2748 101 INV_X1
X101 g5216 102 INV_X1
X102 g650 103 INV_X1
X103 g11735 104 INV_X1
X104 g94 105 INV_X1
X105 I22177 g23002 INV_X1
X106 g962 106 INV_X1
X107 g2193 107 INV_X1
X108 g10361 108 INV_X1
X109 g2130 109 INV_X1
X110 g5527 110 INV_X1
X111 g12804 111 INV_X1
X112 g3171 112 INV_X1
X113 g5381 113 INV_X1
X114 g3827 114 INV_X1
X115 g255 115 INV_X1
X116 g2227 116 INV_X1
X117 g1589 117 INV_X1
X118 g3863 118 INV_X1
X119 g1221 119 INV_X1
X120 g4727 120 INV_X1
X121 g2873 121 INV_X1
X122 g2803 122 INV_X1
X123 g1099 123 INV_X1
X124 g6275 124 INV_X1
X125 g2886 125 INV_X1
X126 g2315 126 INV_X1
X127 g6682 127 INV_X1
X128 g4438 128 INV_X1
X129 g6113 129 INV_X1
X130 g2051 130 INV_X1
X131 g3235 131 INV_X1
X132 g10003 132 INV_X1
X133 I14033 133 INV_X1
X134 g577 134 INV_X1
X135 g1744 135 INV_X1
X136 g5208 136 INV_X1
X137 g837 137 INV_X1
X138 g5802 138 INV_X1
X139 g1752 139 INV_X1
X140 g3355 140 INV_X1
X141 g5759 141 INV_X1
X142 g392 142 INV_X1
X143 g4392 143 INV_X1
X144 g1024 144 INV_X1
X145 g6625 145 INV_X1
X146 g1756 146 INV_X1
X147 g1211 147 INV_X1
X148 g3380 148 INV_X1
X149 g336 149 INV_X1
X150 g3416 150 INV_X1
X151 g1886 151 INV_X1
X152 g744 152 INV_X1
X153 g3727 153 INV_X1
X154 g645 154 INV_X1
X155 g4375 155 INV_X1
X156 g1263 156 INV_X1
X157 g538 157 INV_X1
X158 g5236 158 INV_X1
X159 g3231 159 INV_X1
X160 g3805 160 INV_X1
X161 g2791 161 INV_X1
X162 g847 162 INV_X1
X163 g1792 163 INV_X1
X164 g703 164 INV_X1
X165 g2787 165 INV_X1
X166 g6565 166 INV_X1
X167 g3961 167 INV_X1
X168 g4927 168 INV_X1
X169 g11762 169 INV_X1
X170 g6395 170 INV_X1
X171 g11790 171 INV_X1
X172 g6058 172 INV_X1
X173 g3574 173 INV_X1
X174 g1129 174 INV_X1
X175 g2852 175 INV_X1
X176 g3570 176 INV_X1
X177 g2811 177 INV_X1
X178 g1472 178 INV_X1
X179 g6621 179 INV_X1
X180 g626 180 INV_X1
X181 g550 181 INV_X1
X182 g2070 182 INV_X1
X183 g3125 183 INV_X1
X184 g4907 184 INV_X1
X185 g2697 185 INV_X1
X186 g5817 186 INV_X1
X187 I15942 187 INV_X1
X188 g6052 188 INV_X1
X189 g4473 189 INV_X1
X190 g2878 190 INV_X1
X191 g2287 191 INV_X1
X192 g4504 192 INV_X1
X193 g1636 193 INV_X1
X194 g294 194 INV_X1
X195 g5077 195 INV_X1
X196 I14593 196 INV_X1
X197 g5357 197 INV_X1
X198 g5297 198 INV_X1
X199 g6497 199 INV_X1
X200 g3045 200 INV_X1
X201 g2138 201 INV_X1
X202 g3484 202 INV_X1
X203 g1384 203 INV_X1
X204 g1536 204 INV_X1
X205 g5925 205 INV_X1
X206 g1882 206 INV_X1
X207 g5232 207 INV_X1
X208 g2894 208 INV_X1
X209 I14567 209 INV_X1
X210 g739 210 INV_X1
X211 g1748 211 INV_X1
X212 g4549 212 INV_X1
X213 g11705 213 INV_X1
X214 g5953 214 INV_X1
X215 g10288 215 INV_X1
X216 g4717 216 INV_X1
X217 g5961 217 INV_X1
X218 g2827 218 INV_X1
X219 g5268 219 INV_X1
X220 g5022 220 INV_X1
X221 g5352 221 INV_X1
X222 g4245 222 INV_X1
X223 g6629 223 INV_X1
X224 g6404 224 INV_X1
X225 g311 225 INV_X1
X226 g781 226 INV_X1
X227 g6653 227 INV_X1
X228 g5901 228 INV_X1
X229 g2955 229 INV_X1
X230 g5893 230 INV_X1
X231 g1300 231 INV_X1
X232 g2338 232 INV_X1
X233 g4552 233 INV_X1
X234 g5619 234 INV_X1
X235 g3929 235 INV_X1
X236 g4917 236 INV_X1
X237 g952 237 INV_X1
X238 g2799 238 INV_X1
X239 g12831 239 INV_X1
X240 g691 240 INV_X1
X241 g2882 241 INV_X1
X242 g2165 242 INV_X1
X243 g5200 243 INV_X1
X244 g5109 244 INV_X1
X245 g2994 245 INV_X1
X246 g11736 246 INV_X1
X247 g13189 247 INV_X1
X248 g3590 248 INV_X1
X249 g1779 249 INV_X1
X250 g6439 250 INV_X1
X251 g2421 251 INV_X1
X252 g3522 252 INV_X1
X253 g10420 253 INV_X1
X254 g613 254 INV_X1
X255 g1996 255 INV_X1
X256 g3004 256 INV_X1
X257 g11796 257 INV_X1
X258 g4176 258 INV_X1
X259 g6049 259 INV_X1
X260 g5990 260 INV_X1
X261 g2040 261 INV_X1
X262 g417 262 INV_X1
X263 g2461 263 INV_X1
X264 g6459 264 INV_X1
X265 g5921 265 INV_X1
X266 g3255 266 INV_X1
X267 g4253 267 INV_X1
X268 g4057 268 INV_X1
X269 g5595 269 INV_X1
X270 g2807 270 INV_X1
X271 g6291 271 INV_X1
X272 g6271 272 INV_X1
X273 g1216 273 INV_X1
X274 g2472 274 INV_X1
X275 g5913 275 INV_X1
X276 g2815 276 INV_X1
X277 g6251 277 INV_X1
X278 g4300 278 INV_X1
X279 g3050 279 INV_X1
X280 g3103 280 INV_X1
X281 g1926 281 INV_X1
X282 g2197 282 INV_X1
X283 g5228 283 INV_X1
X284 g7543 284 INV_X1
X285 g3352 285 INV_X1
X286 g2575 286 INV_X1
X287 g996 287 INV_X1
X288 g2153 288 INV_X1
X289 g6148 289 INV_X1
X290 g5905 290 INV_X1
X291 g2066 291 INV_X1
X292 g3706 292 INV_X1
X293 g947 293 INV_X1
X294 g4480 294 INV_X1
X295 g4349 295 INV_X1
X296 g5360 296 INV_X1
X297 g4922 297 INV_X1
X298 g4297 298 INV_X1
X299 g608 299 INV_X1
X300 g562 300 INV_X1
X301 g4521 301 INV_X1
X302 g1728 302 INV_X1
X303 g3586 303 INV_X1
X304 g6219 304 INV_X1
X305 g10362 305 INV_X1
X306 g4878 306 INV_X1
X307 g3451 307 INV_X1
X308 g1657 308 INV_X1
X309 g3767 309 INV_X1
X310 g1152 310 INV_X1
X311 g2555 311 INV_X1
X312 g896 312 INV_X1
X313 g2169 313 INV_X1
X314 g1936 314 INV_X1
X315 g5599 315 INV_X1
X316 g10980 316 INV_X1
X317 g401 317 INV_X1
X318 g4495 318 INV_X1
X319 g3207 319 INV_X1
X320 g6307 320 INV_X1
X321 g2579 321 INV_X1
X322 g2795 322 INV_X1
X323 g2648 323 INV_X1
X324 g12823 324 INV_X1
X325 g1193 325 INV_X1
X326 g3933 326 INV_X1
X327 g1526 327 INV_X1
X328 g1783 328 INV_X1
X329 g5703 329 INV_X1
X330 g1339 330 INV_X1
X331 g6151 331 INV_X1
X332 g4975 332 INV_X1
X333 g2181 333 INV_X1
X334 g1256 334 INV_X1
X335 g11754 335 INV_X1
X336 g4527 336 INV_X1
X337 g5591 337 INV_X1
X338 g2619 338 INV_X1
X339 g4546 339 INV_X1
X340 g4540 340 INV_X1
X341 g2476 341 INV_X1
X342 g10541 342 INV_X1
X343 g2060 343 INV_X1
X344 g2223 344 INV_X1
X345 g1296 345 INV_X1
X346 g2307 346 INV_X1
X347 g10490 347 INV_X1
X348 g582 348 INV_X1
X349 g2712 349 INV_X1
X350 g2491 350 INV_X1
X351 g5615 351 INV_X1
X352 g1668 352 INV_X1
X353 g1351 353 INV_X1
X354 g4108 354 INV_X1
X355 g513 355 INV_X1
X356 g10408 356 INV_X1
X357 g6617 357 INV_X1
X358 g1041 358 INV_X1
X359 g5264 359 INV_X1
X360 g3712 360 INV_X1
X361 g1171 361 INV_X1
X362 g3376 362 INV_X1
X363 g3431 363 INV_X1
X364 g6209 364 INV_X1
X365 g3937 365 INV_X1
X366 g728 366 INV_X1
X367 g5579 367 INV_X1
X368 g3873 368 INV_X1
X369 g2331 369 INV_X1
X370 g2357 370 INV_X1
X371 g2902 371 INV_X1
X372 g2217 372 INV_X1
X373 g671 373 INV_X1
X374 g1367 374 INV_X1
X375 g1772 375 INV_X1
X376 g590 376 INV_X1
X377 g10368 377 INV_X1
X378 g1291 378 INV_X1
X379 g5933 379 INV_X1
X380 g11842 380 INV_X1
X381 g160 381 INV_X1
X382 g2856 382 INV_X1
X383 g4501 383 INV_X1
X384 g28 384 INV_X1
X385 g12490 385 INV_X1
X386 g11720 386 INV_X1
X387 g12738 387 INV_X1
X388 g5719 388 INV_X1
X389 g3582 389 INV_X1
X390 g2036 390 INV_X1
X391 g4801 391 INV_X1
X392 g939 392 INV_X1
X393 g4633 393 INV_X1
X394 g7648 394 INV_X1
X395 g10107 395 INV_X1
X396 g2351 396 INV_X1
X397 g3703 397 INV_X1
X398 g5240 398 INV_X1
X399 g5459 399 INV_X1
X400 g969 400 INV_X1
X401 g3925 401 INV_X1
X402 g1008 402 INV_X1
X403 g2437 403 INV_X1
X404 g5727 404 INV_X1
X405 g2327 405 INV_X1
X406 g278 406 INV_X1
X407 g5016 407 INV_X1
X408 g2927 408 INV_X1
X409 g225 409 INV_X1
X410 g2970 410 INV_X1
X411 g1274 411 INV_X1
X412 g1227 412 INV_X1
X413 g3057 413 INV_X1
X414 g843 414 INV_X1
X415 g5805 415 INV_X1
X416 g2016 416 INV_X1
X417 g2429 417 INV_X1
X418 g5957 418 INV_X1
X419 g222 419 INV_X1
X420 g1395 420 INV_X1
X421 g4793 421 INV_X1
X422 g1236 422 INV_X1
X423 g749 423 INV_X1
X424 g6637 424 INV_X1
X425 g5084 425 INV_X1
X426 g1532 426 INV_X1
X427 g3921 427 INV_X1
X428 g3223 428 INV_X1
X429 g4477 429 INV_X1
X430 g6645 430 INV_X1
X431 g5767 431 INV_X1
X432 g2465 432 INV_X1
X433 g2236 433 INV_X1
X434 I18376 g23652 INV_X1
X435 g2848 434 INV_X1
X436 g1135 435 INV_X1
X437 g385 436 INV_X1
X438 g790 437 INV_X1
X439 g6109 438 INV_X1
X440 g622 439 INV_X1
X441 g3040 440 INV_X1
X442 g3763 441 INV_X1
X443 g5180 442 INV_X1
X444 g3211 443 INV_X1
X445 g6303 444 INV_X1
X446 g2988 445 INV_X1
X447 g6259 446 INV_X1
X448 g1542 447 INV_X1
X449 g5929 448 INV_X1
X450 g2860 449 INV_X1
X451 g2960 450 INV_X1
X452 g542 451 INV_X1
X453 g1075 452 INV_X1
X454 g546 453 INV_X1
X455 I14550 454 INV_X1
X456 g12440 455 INV_X1
X457 g2868 456 INV_X1
X458 g6455 457 INV_X1
X459 I27314 g23759 INV_X1
X460 g5644 458 INV_X1
X461 g2965 459 INV_X1
X462 g5112 460 INV_X1
X463 g7596 461 INV_X1
X464 g2599 462 INV_X1
X465 g4732 463 INV_X1
X466 g4172 464 INV_X1
X467 g4543 465 INV_X1
X468 g2763 466 INV_X1
X469 g5037 467 INV_X1
X470 g1183 468 INV_X1
X471 g3061 469 INV_X1
X472 g3259 470 INV_X1
X473 g5517 471 INV_X1
X474 g4674 472 INV_X1
X475 g4462 473 INV_X1
X476 g4567 474 INV_X1
X477 g11833 475 INV_X1
X478 g3802 476 INV_X1
X479 g5611 477 INV_X1
X480 g3639 478 INV_X1
X481 g918 479 INV_X1
X482 g6279 480 INV_X1
X483 g6105 481 INV_X1
X484 g4912 482 INV_X1
X485 g376 483 INV_X1
X486 g2024 484 INV_X1
X487 g5260 485 INV_X1
X488 g6299 486 INV_X1
X489 g12805 487 INV_X1
X490 g2775 488 INV_X1
X491 g12183 g23612 INV_X1
X492 g3288 489 INV_X1
X493 g1422 490 INV_X1
X494 g5863 491 INV_X1
X495 g6073 492 INV_X1
X496 g6494 493 INV_X1
X497 g2208 494 INV_X1
X498 g4459 495 INV_X1
X499 g1478 496 INV_X1
X500 g3408 497 INV_X1
X501 g3454 498 INV_X1
X502 g10519 499 INV_X1
X503 g2767 500 INV_X1
X504 g5069 501 INV_X1
X505 g736 502 INV_X1
X506 g4737 503 INV_X1
X507 g534 504 INV_X1
X508 g6633 505 INV_X1
X509 g10409 506 INV_X1
X510 g4049 507 INV_X1
X511 g6451 508 INV_X1
X512 g2890 509 INV_X1
X513 g3161 510 INV_X1
X514 g3512 511 INV_X1
X515 g6555 512 INV_X1
X516 g2299 513 INV_X1
X517 g3905 514 INV_X1
X518 g6434 515 INV_X1
X519 g2735 516 INV_X1
X520 g157 517 INV_X1
X521 g1283 518 INV_X1
X522 g559 519 INV_X1
X523 g19 520 INV_X1
X524 g2975 521 INV_X1
X525 g4098 522 INV_X1
X526 g686 523 INV_X1
X527 g5706 524 INV_X1
X528 g1079 525 INV_X1
X529 g2295 526 INV_X1
X530 g1199 527 INV_X1
X531 g599 528 INV_X1
X532 g5244 529 INV_X1
X533 g6736 530 INV_X1
X534 g617 531 INV_X1
X535 g1862 532 INV_X1
X536 g10356 533 INV_X1
X537 g5170 534 INV_X1
X538 g956 535 INV_X1
X539 g3100 536 INV_X1
X540 g3759 537 INV_X1
X541 g595 538 INV_X1
X542 g3243 539 INV_X1
X543 g4064 540 INV_X1
X544 g121 541 INV_X1
X545 g2864 542 INV_X1
X546 g5723 543 INV_X1
X547 g772 544 INV_X1
X548 g4628 545 INV_X1
X549 g4455 546 INV_X1
X550 g16 547 INV_X1
X551 g5417 548 INV_X1
X552 g5763 549 INV_X1
X553 g10359 550 INV_X1
X554 g2563 551 INV_X1
X555 g5413 552 INV_X1
X556 g5073 553 INV_X1
X557 g31 554 INV_X1
X558 g347 555 INV_X1
X559 g2917 556 INV_X1
X560 g604 557 INV_X1
X561 g4983 558 INV_X1
X562 g3025 559 INV_X1
X563 g3412 560 INV_X1
X564 g4785 561 INV_X1
X565 g3782 562 INV_X1
X566 g10375 563 INV_X1
X567 g56 564 INV_X1
X568 g19694 565 INV_X1
X569 g6346 566 INV_X1
X570 g3649 567 INV_X1
X571 g110 568 INV_X1
X572 g1070 569 INV_X1
X573 g3298 570 INV_X1
X574 g637 571 INV_X1
X575 g554 572 INV_X1
X576 g640 573 INV_X1
X577 g799 574 INV_X1
X578 g19666 575 INV_X1
X579 g4899 576 INV_X1
X580 g4709 577 INV_X1
X581 g135 578 INV_X1
X582 g5 g12833 INV_X1
X583 565 g54 564 579 AOI21_X1
X584 g34 g53 g57 580 NOR3_X1
X585 564 g54 580 581 NAND3_X1
X586 581 g27511 INV_X1
X587 I14046 g8 g7 582 NOR3_X1
X588 g28 g31 582 583 NAND3_X1
X589 I14550 g19 g16 584 NOR3_X1
X590 I14550 g19 g16 583 585 NOR4_X1
X591 g28 g31 582 584 586 NAND4_X1
X592 454 g19 547 587 NAND3_X1
X593 g31 I14046 g8 g7 588 NOR4_X1
X594 384 588 589 NAND2_X1
X595 587 589 590 NOR2_X1
X596 384 g31 582 591 NAND3_X1
X597 587 591 592 NOR2_X1
X598 584 588 593 NAND2_X1
X599 g28 593 594 NOR2_X1
X600 g28 588 595 NAND2_X1
X601 g28 584 588 596 NAND3_X1
X602 586 593 589 587 597 OAI211_X1
X603 g27511 592 597 598 OAI21_X1
X604 g35 134 599 NAND2_X1
X605 586 82 g35 600 AOI21_X1
X606 600 599 592 601 AOI21_X1
X607 g35 531 602 NAND2_X1
X608 596 394 g35 603 AOI21_X1
X609 603 602 590 g542 594 604 AOI221_X1
X610 598 601 604 605 AOI21_X1
X611 454 520 g16 606 NAND3_X1
X612 583 606 607 NOR2_X1
X613 554 I14046 g8 g7 608 NAND4_X1
X614 I14550 g19 547 609 NAND3_X1
X615 384 608 609 610 NOR3_X1
X616 I14550 520 547 611 NAND3_X1
X617 384 I14550 520 g16 612 NAND4_X1
X618 608 612 613 NOR2_X1
X619 608 611 612 614 AOI21_X1
X620 595 606 615 NOR2_X1
X621 595 611 616 NOR2_X1
X622 595 606 611 617 AOI21_X1
X623 607 610 614 617 618 NOR4_X1
X624 581 618 619 OR2_X1
X625 589 611 620 NOR2_X1
X626 589 611 621 OR2_X1
X627 581 621 622 NOR2_X1
X628 622 623 INV_X1
X629 g2988 615 616 g2898 620 g2894 624 AOI222_X1
X630 384 608 611 625 NOR3_X1
X631 g28 608 611 626 NOR3_X1
X632 610 625 g2936 626 g2941 627 AOI221_X1
X633 581 618 621 624 627 628 AOI221_X1
X634 581 591 609 629 NOR3_X1
X635 581 587 595 630 NOR3_X1
X636 g947 435 631 NOR2_X1
X637 581 589 606 632 NOR3_X1
X638 g1291 496 633 NOR2_X1
X639 g6545 629 630 631 632 633 634 AOI222_X1
X640 581 589 609 635 NOR3_X1
X641 454 g19 g16 636 NAND3_X1
X642 581 595 636 637 NOR3_X1
X643 g5160 635 637 g4912 638 AOI22_X1
X644 581 589 636 639 NOR3_X1
X645 g53 g27511 640 NOR2_X1
X646 g4722 639 640 g21343 641 AOI22_X1
X647 634 638 641 642 NAND3_X1
X648 605 628 642 g33653 OR3_X1
X649 g33653 643 INV_X1
X650 g2852 620 626 g2917 625 g2912 644 AOI222_X1
X651 g2999 615 616 g2856 645 AOI22_X1
X652 619 623 644 645 646 AOI22_X1
X653 586 544 g35 647 AOI21_X1
X654 592 g590 1 648 OAI21_X1
X655 g35 180 649 NAND2_X1
X656 647 649 590 650 AOI21_X1
X657 598 648 650 651 AOI21_X1
X658 178 g1291 652 NOR2_X1
X659 g10408 635 652 632 637 g4922 653 AOI222_X1
X660 g10374 629 640 g21358 654 AOI22_X1
X661 174 g947 655 NOR2_X1
X662 g4732 639 655 630 656 AOI22_X1
X663 653 654 656 657 NAND3_X1
X664 646 651 657 g33641 OR3_X1
X665 579 g33653 658 XNOR2_X1
X666 g33641 658 659 XNOR2_X1
X667 g35 300 660 NAND2_X1
X668 g199 594 660 592 661 AOI22_X1
X669 g35 528 662 NAND2_X1
X670 596 226 g35 663 AOI21_X1
X671 586 210 g35 664 AOI21_X1
X672 663 664 590 662 665 AOI211_X1
X673 598 661 665 666 AOI21_X1
X674 g100 607 667 NAND2_X1
X675 610 613 g2984 615 g2890 668 AOI221_X1
X676 619 667 668 669 AOI21_X1
X677 581 595 609 670 NOR3_X1
X678 g10361 635 640 g21281 671 AOI22_X1
X679 g4157 622 632 g1287 670 g4245 672 AOI222_X1
X680 g10362 629 630 g943 673 AOI22_X1
X681 671 672 673 674 NAND3_X1
X682 666 669 674 675 NOR3_X1
X683 675 g33149 INV_X1
X684 592 g568 1 676 OAI21_X1
X685 585 g744 1 677 OAI21_X1
X686 590 g604 1 678 OAI21_X1
X687 596 461 g35 679 AOI21_X1
X688 679 594 g12183 680 AOI21_X1
X689 676 678 680 681 AND3_X1
X690 598 677 681 682 AOI21_X1
X691 g2980 613 625 g2970 626 g2975 683 AOI222_X1
X692 g92 607 615 g127 g2886 616 684 AOI222_X1
X693 619 683 684 685 AOI21_X1
X694 g939 630 632 g1283 670 g4249 686 AOI222_X1
X695 g2697 629 635 g2138 640 g21291 687 AOI222_X1
X696 686 687 91 623 688 OAI211_X1
X697 682 685 688 g33164 OR3_X1
X698 g33164 689 INV_X1
X699 675 g33164 690 XOR2_X1
X700 g35 17 691 NAND2_X1
X701 586 423 g35 692 AOI21_X1
X702 692 691 592 693 AOI21_X1
X703 g35 299 694 NAND2_X1
X704 596 437 g35 695 AOI21_X1
X705 695 694 590 181 594 696 AOI221_X1
X706 598 693 696 697 AOI21_X1
X707 g2873 615 625 g2960 626 g2965 698 AOI222_X1
X708 g94 607 616 g2878 699 AOI22_X1
X709 619 698 699 700 AOI21_X1
X710 345 632 640 g21299 670 g4253 701 AOI222_X1
X711 g2689 629 630 237 635 g2130 702 AOI222_X1
X712 701 702 258 623 703 OAI211_X1
X713 697 700 703 704 NOR3_X1
X714 704 g33176 INV_X1
X715 I22177 607 615 g2868 616 g2882 705 AOI222_X1
X716 610 625 g2950 626 g2955 706 AOI221_X1
X717 619 705 706 707 AOI21_X1
X718 592 g586 1 708 OAI21_X1
X719 585 g758 1 709 OAI21_X1
X720 708 709 710 AND2_X1
X721 g35 254 711 NAND2_X1
X722 596 54 g35 712 AOI21_X1
X723 712 711 590 g534 594 713 AOI221_X1
X724 598 710 713 714 AOI21_X1
X725 g4172 622 632 g1291 g4300 670 715 AOI222_X1
X726 g947 630 640 g21329 716 AOI22_X1
X727 168 637 639 503 717 AOI22_X1
X728 715 716 717 718 NAND3_X1
X729 707 714 718 719 NOR3_X1
X730 719 g33187 INV_X1
X731 704 719 720 XOR2_X1
X732 690 720 721 XNOR2_X1
X733 g2902 626 722 NAND2_X1
X734 g2848 616 620 g2844 g2907 625 723 AOI222_X1
X735 619 623 722 723 724 AOI22_X1
X736 586 284 g35 725 AOI21_X1
X737 592 g595 1 726 OAI21_X1
X738 1 g632 727 OR2_X1
X739 725 727 590 594 g538 728 AOI221_X1
X740 598 726 728 729 AOI21_X1
X741 g947 535 730 NOR2_X1
X742 g6199 635 730 630 639 g4727 731 AOI222_X1
X743 231 g1291 732 NOR2_X1
X744 g21369 640 732 632 733 AOI22_X1
X745 g3853 629 637 g4917 734 AOI22_X1
X746 731 733 734 735 NAND3_X1
X747 724 729 735 736 NOR3_X1
X748 736 g33219 INV_X1
X749 g35 348 737 NAND2_X1
X750 586 19 g35 738 AOI21_X1
X751 738 737 592 739 AOI21_X1
X752 g35 439 740 NAND2_X1
X753 596 572 g35 741 AOI21_X1
X754 741 740 590 g546 594 742 AOI221_X1
X755 598 739 742 743 AOI21_X1
X756 g2922 625 626 g2927 g2860 620 744 AOI222_X1
X757 245 615 616 g2864 745 AOI22_X1
X758 619 623 744 745 746 AOI22_X1
X759 293 g1105 747 AND2_X1
X760 378 g1448 748 NAND2_X1
X761 581 589 606 748 749 NOR4_X1
X762 749 747 630 g4717 639 750 AOI221_X1
X763 g10404 635 640 g21352 751 AOI22_X1
X764 g3151 629 637 g4907 752 AOI22_X1
X765 750 751 752 753 NAND3_X1
X766 743 746 753 g33204 OR3_X1
X767 g33204 754 INV_X1
X768 736 g33204 755 XOR2_X1
X769 659 755 756 XNOR2_X1
X770 721 756 g34877 XNOR2_X1
X771 20 g34877 g34972 OR2_X1
X772 g16540 736 g34913 NAND2_X1
X773 g4082 g4141 757 NOR2_X1
X774 g4087 g4093 g4098 758 NOR3_X1
X775 g4076 g4112 758 759 NAND3_X1
X776 268 540 760 NAND2_X1
X777 I14267 760 759 757 g31521 AOI211_X1
X778 g4785 g4709 761 NOR2_X1
X779 g10388 761 762 NAND2_X1
X780 g4776 391 763 NAND2_X1
X781 g4793 763 764 NOR2_X1
X782 g4653 g4659 g4669 764 765 NAND4_X1
X783 762 765 766 OR2_X1
X784 g4646 766 767 NAND2_X1
X785 767 g28753 INV_X1
X786 g5357 g5297 768 NAND2_X1
X787 768 g25114 INV_X1
X788 1 g967 g18216 AND2_X1
X789 g5180 g10489 769 NAND2_X1
X790 g12738 g5180 770 NAND2_X1
X791 g12738 g5180 g10489 771 NAND3_X1
X792 771 g26801 INV_X1
X793 1 g4931 g18727 AND2_X1
X794 g16540 704 g34925 NAND2_X1
X795 g35 168 g21904 NOR2_X1
X796 1 g1311 g18274 AND2_X1
X797 g16540 719 g34923 NAND2_X1
X798 g482 g72 772 XOR2_X1
X799 g73 g490 773 XOR2_X1
X800 772 773 774 NOR2_X1
X801 774 775 INV_X1
X802 g528 775 776 NOR2_X1
X803 215 776 g479 g33894 AOI21_X1
X804 g518 g504 776 777 NAND3_X1
X805 g1906 314 778 NOR2_X1
X806 g518 g504 776 778 779 NAND4_X1
X807 g528 774 780 NAND2_X1
X808 g518 74 780 781 NOR3_X1
X809 14 g2331 782 NOR2_X1
X810 781 782 783 NAND2_X1
X811 g518 g504 g528 774 784 NAND4_X1
X812 g2495 432 785 NAND2_X1
X813 784 785 786 NOR2_X1
X814 g518 74 776 787 NAND3_X1
X815 g2070 261 788 NAND2_X1
X816 g518 74 g528 774 789 NAND4_X1
X817 462 g2629 790 NAND2_X1
X818 60 776 791 NAND2_X1
X819 60 g504 776 792 NAND3_X1
X820 g1802 375 793 NAND2_X1
X821 g518 g504 780 794 NOR3_X1
X822 116 g2197 795 NOR2_X1
X823 g504 791 796 NOR2_X1
X824 193 g1668 797 NAND2_X1
X825 797 g25259 INV_X1
X826 796 g25259 798 NAND2_X1
X827 786 794 795 799 AOI21_X1
X828 779 798 799 800 NAND3_X1
X829 783 789 790 801 OAI21_X1
X830 787 788 792 793 802 OAI22_X1
X831 800 801 802 g34879 OR3_X1
X832 I22177 g99 803 AND2_X1
X833 g134 803 804 NOR2_X1
X834 g134 803 805 OR2_X1
X835 g113 805 806 NAND2_X1
X836 775 g34879 806 g34383 OR3_X1
X837 1 g2710 g15084 AND2_X1
X838 20 g33641 g34917 OR2_X1
X839 g35 312 g24229 NOR2_X1
X840 361 g1183 807 NOR2_X1
X841 147 273 808 NAND2_X1
X842 g1061 g979 809 NAND2_X1
X843 g1221 g1205 808 809 810 NOR4_X1
X844 452 807 810 g27831 AOI21_X1
X845 g35 143 g25692 NOR2_X1
X846 1 g4741 g18696 AND2_X1
X847 g16540 675 g34915 NAND2_X1
X848 g5873 g10540 811 NAND2_X1
X849 g5873 g12805 812 NAND2_X1
X850 g5873 g10540 g12805 813 NAND3_X1
X851 g73 g4104 814 XOR2_X1
X852 g4108 g72 815 XOR2_X1
X853 814 815 816 NOR2_X1
X854 33 g4093 522 816 817 NAND4_X1
X855 g3171 g10295 818 NAND2_X1
X856 g11714 g3171 819 NAND2_X1
X857 g11714 g3171 g10295 820 NAND3_X1
X858 g4093 522 821 NOR2_X1
X859 g4087 816 822 NAND2_X1
X860 816 821 823 NAND2_X1
X861 g4087 816 821 824 NAND3_X1
X862 g6565 g10581 825 NAND2_X1
X863 g10428 g6565 826 NAND2_X1
X864 g10428 g6565 g10581 827 NAND3_X1
X865 g4087 823 827 828 OR3_X1
X866 758 816 829 NAND2_X1
X867 g11884 g3873 830 NAND2_X1
X868 335 368 831 NOR2_X1
X869 g11754 g3873 832 NAND2_X1
X870 g11884 831 833 NAND2_X1
X871 g4087 g4093 g4098 816 834 AND4_X1
X872 g11884 831 834 835 NAND3_X1
X873 g5527 g10518 836 NAND2_X1
X874 85 110 837 NOR2_X1
X875 g12779 g5527 838 NAND2_X1
X876 g10518 837 839 NAND2_X1
X877 g4098 822 840 NOR2_X1
X878 g4093 g4098 822 841 NOR3_X1
X879 g10518 837 841 842 NAND3_X1
X880 g10564 g6219 843 NAND2_X1
X881 g12831 g6219 844 NAND2_X1
X882 g12831 g10564 g6219 845 NAND3_X1
X883 g4093 840 846 NAND2_X1
X884 g3522 g10323 847 NAND2_X1
X885 g11736 g3522 848 NAND2_X1
X886 g11736 g3522 g10323 849 NAND3_X1
X887 849 850 INV_X1
X888 33 g4093 g4098 816 851 AND4_X1
X889 828 835 845 846 852 OAI211_X1
X890 820 824 829 771 853 OAI22_X1
X891 853 851 850 854 AOI21_X1
X892 842 854 813 817 855 OAI211_X1
X893 852 855 g34789 OR2_X1
X894 806 814 815 g34789 g33659 OR4_X1
X895 1 g3003 g21727 AND2_X1
X896 g72 g11720 856 XNOR2_X1
X897 g73 g12440 857 XNOR2_X1
X898 856 857 858 NAND2_X1
X899 6 g4349 859 NOR2_X1
X900 g11705 858 860 NOR2_X1
X901 213 856 857 861 NAND3_X1
X902 259 260 862 NOR2_X1
X903 g6049 g5990 863 NAND2_X1
X904 859 860 862 864 NAND3_X1
X905 213 858 865 NOR2_X1
X906 6 g4349 866 NAND2_X1
X907 213 858 866 867 NOR3_X1
X908 285 489 868 NOR2_X1
X909 868 869 INV_X1
X910 397 478 870 NOR2_X1
X911 g3703 g3639 871 NAND2_X1
X912 859 865 870 872 NAND3_X1
X913 g4358 g4349 873 NAND2_X1
X914 170 506 874 NOR2_X1
X915 g6395 g10409 875 NAND2_X1
X916 861 873 875 876 NOR3_X1
X917 876 868 867 877 AOI21_X1
X918 g4358 g4349 865 878 NAND3_X1
X919 g4054 g10375 879 AND2_X1
X920 g4054 g10375 880 NAND2_X1
X921 878 880 881 NOR2_X1
X922 861 866 882 NOR2_X1
X923 329 458 883 NOR2_X1
X924 g5703 g5644 884 NAND2_X1
X925 g4358 g4349 885 NOR2_X1
X926 865 885 886 NAND2_X1
X927 g6741 g6682 887 AND2_X1
X928 g6741 g6682 888 NAND2_X1
X929 860 885 889 NAND2_X1
X930 886 888 889 768 890 OAI22_X1
X931 881 890 883 882 891 AOI211_X1
X932 864 872 877 891 g34878 NAND4_X1
X933 806 858 g34878 g34425 OR3_X1
X934 g73 g2763 892 XNOR2_X1
X935 g72 g2759 893 XNOR2_X1
X936 892 893 894 NAND2_X1
X937 894 895 INV_X1
X938 101 I14593 I14567 894 896 NOR4_X1
X939 896 897 INV_X1
X940 73 g1926 898 NOR2_X1
X941 g2748 I14593 209 895 899 NAND4_X1
X942 70 g2476 900 NAND2_X1
X943 101 I14593 895 901 NAND3_X1
X944 209 901 902 OR2_X1
X945 g2342 396 903 NAND2_X1
X946 899 900 902 903 904 OAI22_X1
X947 904 898 896 905 AOI21_X1
X948 101 I14593 209 894 906 NOR4_X1
X949 906 907 INV_X1
X950 130 g2060 908 NOR2_X1
X951 g2748 I14593 909 NOR2_X1
X952 I14567 909 910 NAND2_X1
X953 163 g1783 911 NAND2_X1
X954 g2748 I14593 I14567 895 912 NAND4_X1
X955 10 g2619 913 NOR2_X1
X956 894 910 911 912 10 g2619 914 OAI33_X1
X957 914 908 906 915 AOI21_X1
X958 I14567 901 916 NOR2_X1
X959 916 917 INV_X1
X960 g2217 494 918 NOR2_X1
X961 209 909 919 NAND2_X1
X962 919 920 INV_X1
X963 894 919 921 NOR2_X1
X964 13 g1657 g25167 NOR2_X1
X965 916 918 921 g25167 922 AOI22_X1
X966 905 915 922 g34848 NAND3_X1
X967 806 894 g34848 g34201 OR3_X1
X968 380 g4507 805 g33874 NAND3_X1
X969 1 g943 g21722 AND2_X1
X970 g4785 577 923 NOR2_X1
X971 g10390 923 924 NAND2_X1
X972 561 g4709 925 NOR2_X1
X973 g4743 925 926 NAND2_X1
X974 561 577 927 NOR2_X1
X975 g10391 927 928 NAND2_X1
X976 762 924 926 928 929 AND4_X1
X977 929 g34787 INV_X1
X978 g4812 g4815 805 929 g33636 NAND4_X1
X979 g16540 689 g34927 NAND2_X1
X980 1 g2151 g15079 AND2_X1
X981 g35 108 g18421 NOR2_X1
X982 g4688 g4653 g4659 930 AND3_X1
X983 g4669 930 931 AND2_X1
X984 421 763 932 NOR2_X1
X985 927 932 933 AND2_X1
X986 860 931 933 934 NAND3_X1
X987 332 576 935 NOR2_X1
X988 23 g4991 558 936 NOR3_X1
X989 935 936 937 AND2_X1
X990 g4849 g4878 g4843 938 AND3_X1
X991 g4859 938 939 NAND2_X1
X992 g4859 865 937 938 940 NAND4_X1
X993 934 940 g34847 NAND2_X1
X994 806 858 g34847 g34221 OR3_X1
X995 g16540 643 g34921 NAND2_X1
X996 1 g1287 g21724 AND2_X1
X997 g16540 754 g34919 NAND2_X1
X998 g35 305 g18527 NOR2_X1
X999 332 g4899 941 NOR2_X1
X1000 g10394 941 942 NAND2_X1
X1001 g4975 576 943 NOR2_X1
X1002 g10395 943 944 NAND2_X1
X1003 g4955 935 945 NAND2_X1
X1004 g4975 g4899 946 NOR2_X1
X1005 g10393 946 947 NAND2_X1
X1006 942 944 945 947 948 AND4_X1
X1007 948 g34786 INV_X1
X1008 g5002 g5005 805 948 g33935 NAND4_X1
X1009 g35 503 g21902 NOR2_X1
X1010 g35 521 g21726 NOR2_X1
X1011 60 g513 949 NOR2_X1
X1012 g10350 949 950 AND2_X1
X1013 g174 g168 951 OR2_X1
X1014 950 951 g182 952 OAI21_X1
X1015 g358 g385 g376 953 AND3_X1
X1016 g358 g385 g376 954 NAND3_X1
X1017 g370 954 955 NOR2_X1
X1018 g518 g499 956 OR2_X1
X1019 g482 g528 g490 956 957 NOR4_X1
X1020 955 957 958 NAND2_X1
X1021 g7648 g554 959 NAND2_X1
X1022 g11741 g11721 960 OR2_X1
X1023 g11741 g11721 961 NAND2_X1
X1024 960 961 g753 962 MUX2_X1
X1025 955 957 959 962 963 NAND4_X1
X1026 959 960 g753 964 OAI21_X1