* Nangila SPICE Auto-Synthesized Netlist
.SUBCKT INV_X1 A Z
M1 Z A 0 0 NMOS W=0.2u L=0.05u
M2 Z A 1 1 PMOS W=0.4u L=0.05u
.ENDS

.SUBCKT NAND2_X1 A1 A2 Z
M1 Z A1 1 1 PMOS W=0.4u L=0.05u
M2 Z A2 1 1 PMOS W=0.4u L=0.05u
M3 Z A1 int 0 NMOS W=0.2u L=0.05u
M4 int A2 0 0 NMOS W=0.2u L=0.05u
.ENDS

.SUBCKT AND2_X1 A1 A2 Z
X1 A1 A2 Z_bar NAND2_X1
X2 Z_bar Z INV_X1
.ENDS

.SUBCKT NOR2_X1 A1 A2 Z
M1 int1 A1 1 1 PMOS W=0.4u L=0.05u
M2 Z A2 int1 1 PMOS W=0.4u L=0.05u
M3 Z A1 0 0 NMOS W=0.2u L=0.05u
M4 Z A2 0 0 NMOS W=0.2u L=0.05u
.ENDS

.SUBCKT OR2_X1 A1 A2 Z
X1 A1 A2 Z_bar NOR2_X1
X2 Z_bar Z INV_X1
.ENDS

.SUBCKT XOR2_X1 A1 A2 Z
X1 A1 A2 int1 AND2_X1
X2 A1 A2 int2 NOR2_X1
X3 int1 int2 int3 NOR2_X1
X4 int3 Z INV_X1
.ENDS

.SUBCKT XNOR2_X1 A B Z
X1 A B Z_int XOR2_X1
X2 Z_int Z INV_X1
.ENDS

.SUBCKT BUF_X1 A Z
X1 A Z_bar INV_X1
X2 Z_bar Z INV_X1
.ENDS

.SUBCKT OAI21_X1 A B C Z
X1 A B C Z_bar AOI21_X1
X2 Z_bar Z INV_X1
.ENDS

.SUBCKT AOI21_X1 A B C Z
M1 Z A int1 1 PMOS W=0.4u L=0.05u
M2 int1 B 1 1 PMOS W=0.4u L=0.05u
M3 Z C 1 1 PMOS W=0.4u L=0.05u
M4 Z A 0 0 NMOS W=0.2u L=0.05u
M5 Z B 0 0 NMOS W=0.2u L=0.05u
M6 Z C 0 0 NMOS W=0.2u L=0.05u
.ENDS

.SUBCKT NAND3_X1 A1 A2 A3 Z
X1 A1 A2 int1 AND2_X1
X2 int1 A3 Z NAND2_X1
.ENDS

.SUBCKT AND3_X1 A1 A2 A3 Z
X1 A1 A2 A3 Z_bar NAND3_X1
X2 Z_bar Z INV_X1
.ENDS

.SUBCKT NOR3_X1 A1 A2 A3 Z
X1 A1 A2 int1 OR2_X1
X2 int1 A3 Z NOR2_X1
.ENDS

.SUBCKT OR3_X1 A1 A2 A3 Z
X1 A1 A2 A3 Z_bar NOR3_X1
X2 Z_bar Z INV_X1
.ENDS

.SUBCKT NAND4_X1 A1 A2 A3 A4 Z
X1 A1 A2 A3 int1 AND3_X1
X2 int1 A4 Z NAND2_X1
.ENDS

.SUBCKT AND4_X1 A1 A2 A3 A4 Z
X1 A1 A2 A3 A4 Z_bar NAND4_X1
X2 Z_bar Z INV_X1
.ENDS

.SUBCKT NOR4_X1 A1 A2 A3 A4 Z
X1 A1 A2 A3 int1 OR3_X1
X2 int1 A4 Z NOR2_X1
.ENDS

.SUBCKT OR4_X1 A1 A2 A3 A4 Z
X1 A1 A2 A3 A4 Z_bar NOR4_X1
X2 Z_bar Z INV_X1
.ENDS

.SUBCKT AOI22_X1 A B C D Z
X1 A B int1 AND2_X1
X2 C D int2 AND2_X1
X3 int1 int2 Z NOR2_X1
.ENDS

.SUBCKT OAI22_X1 A B C D Z
X1 A B int1 OR2_X1
X2 C D int2 OR2_X1
X3 int1 int2 Z NAND2_X1
.ENDS

.SUBCKT AOI211_X1 A B C D Z
X1 A B int1 AND2_X1
X2 int1 C D Z NOR3_X1
.ENDS

.SUBCKT OAI211_X1 A B C D Z
X1 A B int1 OR2_X1
X2 int1 C D Z NAND3_X1
.ENDS

.SUBCKT OAI33_X1 A B C D E F Z
X1 A B C int1 OR3_X1
X2 D E F int2 OR3_X1
X3 int1 int2 Z NAND2_X1
.ENDS

.SUBCKT AOI33_X1 A B C D E F Z
X1 A B C int1 AND3_X1
X2 D E F int2 AND3_X1
X3 int1 int2 Z NOR2_X1
.ENDS

.SUBCKT MUX2_X1 A B S Z
X1 S S_bar INV_X1
X2 A S_bar int1 AND2_X1
X3 B S int2 AND2_X1
X4 int1 int2 Z OR2_X1
.ENDS

.SUBCKT DFF_X1 D C Q QN
X1 D Q_int INV_X1
X2 Q_int Q INV_X1
X3 Q_int QN INV_X1
.ENDS

.SUBCKT DFFR_X1 D C RN Q QN
X1 D Q_int INV_X1
X2 Q_int Q INV_X1
X3 Q_int QN INV_X1
.ENDS

.SUBCKT DFFS_X1 C D Q QN SN
X1 D Q_int INV_X1
X2 Q_int Q INV_X1
X3 Q_int QN INV_X1
.ENDS

.SUBCKT DFFRS_X1 C D Q QN RN SN
X1 D Q_int INV_X1
X2 Q_int Q INV_X1
X3 Q_int QN INV_X1
.ENDS

* Provide VDD power source explicitly
Vvdd 1 0 1.8

* Auto-extracted Inputs:
V_CK CK 0 1.8
V_D D 0 0.0
V_CK CK 0 1.8
V_n3065gat n3065gat 0 0.0
V_n3066gat n3066gat 0 1.8
V_n3067gat n3067gat 0 0.0
V_n3068gat n3068gat 0 1.8
V_n3069gat n3069gat 0 0.0
V_n3070gat n3070gat 0 1.8
V_n3071gat n3071gat 0 0.0
V_n3072gat n3072gat 0 1.8
V_n3073gat n3073gat 0 0.0
V_n3074gat n3074gat 0 1.8
V_n3075gat n3075gat 0 0.0
V_n3076gat n3076gat 0 1.8
V_n3077gat n3077gat 0 0.0
V_n3078gat n3078gat 0 1.8
V_n3079gat n3079gat 0 0.0
V_n3080gat n3080gat 0 1.8
V_n3081gat n3081gat 0 0.0
V_n3082gat n3082gat 0 1.8
V_n3083gat n3083gat 0 0.0
V_n3084gat n3084gat 0 1.8
V_n3085gat n3085gat 0 0.0
V_n3086gat n3086gat 0 1.8
V_n3087gat n3087gat 0 0.0
V_n3088gat n3088gat 0 1.8
V_n3089gat n3089gat 0 0.0
V_n3090gat n3090gat 0 1.8
V_n3091gat n3091gat 0 0.0
V_n3092gat n3092gat 0 1.8
V_n3093gat n3093gat 0 0.0
V_n3094gat n3094gat 0 1.8
V_n3095gat n3095gat 0 0.0
V_n3097gat n3097gat 0 1.8
V_n3098gat n3098gat 0 0.0
V_n3099gat n3099gat 0 1.8
V_n3100gat n3100gat 0 0.0

* Yosys Generated Netlist:
* SPICE netlist generated by Yosys 0.62 (git sha1 7326bb7d6641500ecb285c291a54a662cb1e76cf, clang++ 17.0.0 -fPIC -O3)

.SUBCKT dff CK Q D
X0 CK D Q 1 DFF_X1
.ENDS dff

X0 n3090gat 1 INV_X1
X1 II2271 n2201gat INV_X1
X2 II2238 n2443gat INV_X1
X3 II2275 n2205gat INV_X1
X4 II2242 n2284gat INV_X1
X5 n1884gat 2 INV_X1
X6 n2283gat 3 INV_X1
X7 n1595gat 4 INV_X1
X8 II726 5 INV_X1
X9 II687 6 INV_X1
X10 II692 7 INV_X1
X11 II453 8 INV_X1
X12 II414 9 INV_X1
X13 II409 10 INV_X1
X14 n3087gat 11 INV_X1
X15 n3086gat 12 INV_X1
X16 II456 13 INV_X1
X17 II1183 n719gat INV_X1
X18 II1174 n705gat INV_X1
X19 II1178 n718gat INV_X1
X20 II1209 n736gat INV_X1
X21 II1236 n503gat INV_X1
X22 II1416 n596gat INV_X1
X23 II1407 n594gat INV_X1
X24 II1411 n595gat INV_X1
X25 II1472 n682gat INV_X1
X26 II1476 n695gat INV_X1
X27 II2389 n2487gat INV_X1
X28 II2394 n2557gat INV_X1
X29 n2429gat n2482gat INV_X1
X30 n3100gat 14 INV_X1
X31 n2154gat 15 INV_X1
X32 n2536gat n2532gat INV_X1
X33 n2576gat n2574gat INV_X1
X34 II2268 n2353gat INV_X1
X35 n2389gat n2388gat INV_X1
X36 n2494gat n2493gat INV_X1
X37 n2338gat n2337gat INV_X1
X38 n2269gat n2268gat INV_X1
X39 n2550gat n2486gat INV_X1
X40 n2551gat n2553gat INV_X1
X41 n1989gat 16 INV_X1
X42 n1918gat 17 INV_X1
X43 n1988gat 18 INV_X1
X44 n1658gat 19 INV_X1
X45 n2189gat 20 INV_X1
X46 n1311gat 21 INV_X1
X47 n672gat 22 INV_X1
X48 n2591gat n2590gat INV_X1
X49 n1393gat n1392gat INV_X1
X50 n1774gat n1773gat INV_X1
X51 n1315gat n1314gat INV_X1
X52 n2124gat n2123gat INV_X1
X53 n151gat 23 INV_X1
X54 n330gat 24 INV_X1
X55 n326gat 25 INV_X1
X56 n255gat 26 INV_X1
X57 n1339gat 27 INV_X1
X58 n2472gat n2470gat INV_X1
X59 n2319gat 28 INV_X1
X60 n2029gat n2027gat INV_X1
X61 n3094gat 29 INV_X1
X62 n3095gat 30 INV_X1
X63 n1332gat n1330gat INV_X1
X64 n1433gat n1431gat INV_X1
X65 n1363gat n1361gat INV_X1
X66 n2309gat n2307gat INV_X1
X67 n2095gat n2093gat INV_X1
X68 n2176gat n2174gat INV_X1
X69 II3318 n3106gat INV_X1
X70 n2044gat n2042gat INV_X1
X71 n2037gat n2035gat INV_X1
X72 n2025gat n2023gat INV_X1
X73 n2033gat n2031gat INV_X1
X74 n2110gat n2108gat INV_X1
X75 n2121gat n2119gat INV_X1
X76 II3954 n3148gat INV_X1
X77 n2458gat n2456gat INV_X1
X78 n3081gat n3095gat n3093gat n3072gat 31 AOI22_X1
X79 31 n2897gat INV_X1
X80 n3084gat n3083gat 32 NOR2_X1
X81 n3084gat n3083gat 33 XNOR2_X1
X82 n3085gat 33 34 XNOR2_X1
X83 n3087gat n3086gat 35 XOR2_X1
X84 n3088gat n3089gat 36 XNOR2_X1
X85 35 36 37 XNOR2_X1
X86 34 37 n748gat XNOR2_X1
X87 II368 II406 38 XNOR2_X1
X88 II363 38 39 XNOR2_X1
X89 II414 II409 40 NAND2_X1
X90 II414 II409 41 XOR2_X1
X91 II453 II456 42 XNOR2_X1
X92 II359 II461 43 XOR2_X1
X93 42 43 44 XNOR2_X1
X94 41 44 45 XNOR2_X1
X95 39 45 n43gat XNOR2_X1
X96 II687 II692 46 XOR2_X1
X97 II683 46 47 XNOR2_X1
X98 II726 II729 48 XOR2_X1
X99 II651 II734 49 XOR2_X1
X100 48 49 50 XNOR2_X1
X101 II642 II646 51 XOR2_X1
X102 47 51 52 XNOR2_X1
X103 50 52 n55gat XNOR2_X1
X104 n3074gat n3095gat n3093gat n3065gat 53 AOI22_X1
X105 53 n2914gat INV_X1
X106 n3076gat n3095gat n3093gat n3067gat 54 AOI22_X1
X107 54 n2928gat INV_X1
X108 n3075gat n3095gat n3093gat n3066gat 55 AOI22_X1
X109 55 n2927gat INV_X1
X110 n3080gat n3095gat n3093gat n3071gat 56 AOI22_X1
X111 56 n2896gat INV_X1
X112 n3082gat n3095gat n3093gat n3073gat 57 AOI22_X1
X113 57 n2922gat INV_X1
X114 n3077gat n3095gat n3093gat n3068gat 58 AOI22_X1
X115 58 n2894gat INV_X1
X116 n3079gat n3095gat n3093gat n3070gat 59 AOI22_X1
X117 59 n2921gat INV_X1
X118 n3078gat n3095gat n3093gat n3069gat 60 AOI22_X1
X119 60 n2895gat INV_X1
X120 II851 II846 61 XNOR2_X1
X121 II1007 II1011 62 XOR2_X1
X122 61 62 63 XNOR2_X1
X123 II921 II925 64 XOR2_X1
X124 II930 64 65 XNOR2_X1
X125 II842 II1016 66 XNOR2_X1
X126 63 66 67 XNOR2_X1
X127 65 67 n933gat XNOR2_X1
X128 II1209 n625gat 68 XOR2_X1
X129 n621gat 68 69 XNOR2_X1
X130 II1183 II1174 70 XNOR2_X1
X131 n499gat n490gat 71 XOR2_X1
X132 II1178 II1236 72 XNOR2_X1
X133 71 72 73 XNOR2_X1
X134 70 73 74 XNOR2_X1
X135 69 74 n504gat XNOR2_X1
X136 n3093gat II3318 32 75 AND3_X1
X137 n3085gat 12 75 76 NAND3_X1
X138 n3091gat n3092gat 77 NOR2_X1
X139 n3088gat 11 77 78 OR3_X1
X140 76 78 79 NOR2_X1
X141 n3084gat n3085gat n3083gat 80 NOR3_X1
X142 n3086gat n3095gat 80 81 AND3_X1
X143 n3094gat II3318 81 82 NAND3_X1
X144 n3088gat 11 83 NAND2_X1
X145 82 83 84 NOR2_X1
X146 n3065gat 79 84 n3074gat 85 AOI22_X1
X147 85 n2913gat INV_X1
X148 n3067gat 79 84 n3076gat 86 AOI22_X1
X149 86 n2920gat INV_X1
X150 n3066gat 79 84 n3075gat 87 AOI22_X1
X151 87 n2905gat INV_X1
X152 n3068gat 79 84 n3077gat 88 AOI22_X1
X153 88 n2898gat INV_X1
X154 II1353 II1348 89 XNOR2_X1
X155 II1344 II1481 90 XOR2_X1
X156 II1407 II1411 91 XOR2_X1
X157 II1416 91 92 XNOR2_X1
X158 II1472 II1476 93 XNOR2_X1
X159 89 93 94 XNOR2_X1
X160 90 94 95 XNOR2_X1
X161 92 95 n567gat XNOR2_X1
X162 n1879gat n1762gat 96 OR2_X1
X163 n2101gat 96 97 AND2_X1
X164 97 n1858gat INV_X1
X165 n3085gat n3086gat 75 98 NAND3_X1
X166 n3087gat n3095gat II3318 80 99 NAND4_X1
X167 77 83 98 99 82 n3088gat 100 OAI33_X1
X168 n3065gat 100 101 NAND2_X1
X169 II453 II456 102 NAND2_X1
X170 9 II409 n1691gat 102 103 OR4_X1
X171 8 II456 n1691gat 40 104 NOR4_X1
X172 8 II456 n1691gat 40 105 OR4_X1
X173 II453 13 n1691gat 106 OR3_X1
X174 II453 9 13 n1691gat 107 OR4_X1
X175 107 n1945gat INV_X1
X176 103 105 107 n1685gat NAND3_X1
X177 II2389 n2429gat n2532gat n2550gat 108 NAND4_X1
X178 n2482gat n2550gat 109 NAND2_X1
X179 n2487gat 15 n2536gat 110 NAND3_X1
X180 15 108 109 110 111 OAI22_X1
X181 II2238 n2284gat 112 NOR2_X1
X182 II2268 112 113 NAND2_X1
X183 n2201gat n2205gat II2268 112 114 NAND4_X1
X184 II2238 n2284gat II2268 115 NAND3_X1
X185 II2271 II2275 115 116 NOR3_X1
X186 II2275 II2394 116 117 NOR3_X1
X187 n1685gat 111 114 117 118 NAND4_X1
X188 101 118 n2918gat NAND2_X1
X189 n3067gat 100 119 NAND2_X1
X190 118 119 n2952gat NAND2_X1
X191 n3066gat 100 120 NAND2_X1
X192 118 120 n2919gat NAND2_X1
X193 n3071gat 100 121 NAND2_X1
X194 118 121 n2910gat NAND2_X1
X195 n3072gat 100 122 NAND2_X1
X196 118 122 n2907gat NAND2_X1
X197 n3068gat 100 123 NAND2_X1
X198 118 123 n2911gat NAND2_X1
X199 n3070gat 100 124 NAND2_X1
X200 118 124 n2912gat NAND2_X1
X201 n3069gat 100 125 NAND2_X1
X202 118 125 n2909gat NAND2_X1
X203 II1800 II1791 126 XNOR2_X1
X204 II1795 126 127 XNOR2_X1
X205 II1899 II1903 128 XOR2_X1
X206 II1908 128 129 XNOR2_X1
X207 n1225gat n1281gat 130 XNOR2_X1
X208 129 130 131 XNOR2_X1
X209 127 131 132 XNOR2_X1
X210 132 n3116gat INV_X1
X211 n3073gat 100 133 NAND2_X1
X212 118 133 n2908gat NAND2_X1
X213 n1196gat 132 n2971gat XOR2_X1
X214 57 118 n2904gat NAND2_X1
X215 53 118 n2891gat NAND2_X1
X216 54 118 n2903gat NAND2_X1
X217 55 118 n2915gat NAND2_X1
X218 56 118 n2901gat NAND2_X1
X219 31 118 n2890gat NAND2_X1
X220 58 118 n2888gat NAND2_X1
X221 59 118 n2887gat NAND2_X1
X222 60 118 n2886gat NAND2_X1
X223 II2153 II2157 134 XOR2_X1
X224 II2162 134 135 XNOR2_X1
X225 II2049 II2040 136 XNOR2_X1
X226 II2044 136 137 XNOR2_X1
X227 n365gat n560gat 138 XNOR2_X1
X228 137 138 139 XNOR2_X1
X229 135 139 140 XNOR2_X1
X230 n666gat 140 n3010gat XOR2_X1
X231 n2526gat n2464gat II1961 n2599gat 141 NAND4_X1
X232 1 n2522gat n2476gat n2468gat 142 NAND4_X1
X233 141 142 n3016gat OR2_X1
X234 II2238 II2242 143 XNOR2_X1
X235 n2576gat 143 144 XNOR2_X1
X236 II2271 n2205gat 145 NAND2_X1
X237 II2271 n2205gat 146 NOR2_X1
X238 II2271 II2275 147 XNOR2_X1
X239 II2268 147 148 XNOR2_X1
X240 144 148 n2579gat XNOR2_X1
X241 n2338gat n2269gat 149 XNOR2_X1
X242 n2389gat n2494gat 150 XNOR2_X1
X243 149 150 n2646gat XNOR2_X1
X244 II2389 n2536gat 151 XNOR2_X1
X245 II2394 151 152 XNOR2_X1
X246 n2429gat n2550gat 153 XNOR2_X1
X247 n2551gat 153 154 XNOR2_X1
X248 152 154 n2613gat XNOR2_X1
X249 II414 n1691gat 102 155 NOR3_X1
X250 104 155 156 NOR2_X1
X251 n1685gat 155 157 NOR2_X1
X252 157 n1518gat INV_X1
X253 n1495gat n2090gat 158 NOR2_X1
X254 n1884gat n1785gat 159 NOR2_X1
X255 n1631gat n1633gat n1787gat 160 NAND3_X1
X256 n1884gat n1785gat 160 n1713gat NOR3_X1
X257 97 158 n1713gat 161 AND3_X1
X258 n1884gat n1633gat 162 NOR2_X1
X259 n1884gat n1633gat n1785gat 163 NOR3_X1
X260 n1631gat n1787gat 163 164 NAND3_X1
X261 n1858gat 164 165 OR2_X1
X262 n1858gat 158 164 166 NOR3_X1
X263 2 n1633gat 167 NAND2_X1
X264 n1631gat 167 168 NOR2_X1
X265 n1785gat n1787gat n1858gat 168 169 NAND4_X1
X266 n1884gat n1633gat n1785gat n1787gat 170 NOR4_X1
X267 n1631gat 170 171 NAND2_X1
X268 171 n1717gat INV_X1
X269 n1739gat n1858gat 172 NAND2_X1
X270 n1739gat 169 171 172 173 OAI22_X1
X271 161 166 173 174 NOR3_X1
X272 n2189gat II3394 175 NOR2_X1
X273 n2189gat n2134gat II3394 n2178gat 176 OR4_X1
X274 16 n1988gat 177 NOR2_X1
X275 n2283gat 17 178 NAND2_X1
X276 n1658gat 178 179 NOR2_X1
X277 n1658gat 97 178 180 NOR3_X1
X278 3 n1918gat 181 NAND2_X1
X279 n1658gat n1858gat 181 182 NOR3_X1
X280 177 180 182 183 OAI21_X1
X281 174 183 176 n2181gat n2983gat AOI211_X1
X282 II409 107 184 NOR2_X1
X283 II409 n155gat 107 185 NOR3_X1
X284 23 185 186 AND2_X1
X285 n3088gat n3087gat 187 NAND2_X1
X286 187 188 INV_X1
X287 76 77 187 189 NOR3_X1
X288 84 189 190 NOR2_X1
X289 n151gat 185 191 XNOR2_X1
X290 n3067gat 191 190 n3055gat MUX2_X1
X291 n155gat 184 192 XNOR2_X1
X292 n3068gat 192 190 n3056gat MUX2_X1
X293 79 84 193 NOR2_X1
X294 193 194 INV_X1
X295 10 107 195 NOR2_X1
X296 10 n387gat 107 196 NOR3_X1
X297 24 196 197 AND2_X1
X298 24 196 198 XNOR2_X1
X299 n3071gat 79 84 n3080gat 199 AOI22_X1
X300 199 198 194 n3057gat OAI21_X1
X301 n387gat 195 200 XOR2_X1
X302 n3072gat 79 84 n3081gat 201 AOI22_X1
X303 201 200 194 n3058gat OAI21_X1
X304 n387gat 24 n326gat 202 AOI21_X1
X305 10 107 202 203 NOR3_X1
X306 n462gat 203 204 XOR2_X1
X307 n3073gat 79 84 n3082gat 205 AOI22_X1
X308 205 204 194 n3059gat OAI21_X1
X309 25 197 206 AND2_X1
X310 193 197 25 207 OAI21_X1
X311 n3070gat 79 84 n3079gat 208 AOI22_X1
X312 208 207 206 n3060gat OAI21_X1
X313 n383gat 206 209 XOR2_X1
X314 n3069gat 79 84 n3078gat 210 AOI22_X1
X315 210 209 194 n3061gat OAI21_X1
X316 n155gat 23 n255gat 211 AOI21_X1
X317 II409 107 211 212 NOR3_X1
X318 n469gat 212 213 XNOR2_X1
X319 n3073gat 213 190 n3062gat MUX2_X1
X320 26 186 214 NAND2_X1
X321 n255gat 186 215 XNOR2_X1
X322 n3066gat 215 190 n3063gat MUX2_X1
X323 n147gat 214 216 XOR2_X1
X324 n3065gat 216 190 n3064gat MUX2_X1
X325 n3088gat n3086gat 99 217 OR3_X1
X326 n3085gat 12 83 218 NOR3_X1
X327 75 218 219 NAND2_X1
X328 n1884gat n1633gat 217 219 n3151gat NAND4_X1
X329 n1785gat 162 220 XOR2_X1
X330 220 n1691gat II363 n3150gat OAI21_X1
X331 II2238 II2242 n2353gat 221 NAND3_X1
X332 n2443gat II2242 n2353gat 222 NAND3_X1
X333 II2238 II2242 II2268 223 OR3_X1
X334 n2443gat n2284gat II2268 224 NAND3_X1
X335 II2238 n2284gat n2353gat 225 NAND3_X1
X336 II2238 II2242 II2268 226 NAND3_X1
X337 II2044 113 222 II2153 227 OAI22_X1
X338 n365gat 223 224 II2162 226 II2049 228 OAI222_X1
X339 II2040 115 221 II2157 225 n560gat 229 OAI222_X1
X340 227 228 229 230 NOR3_X1
X341 145 230 231 NOR2_X1
X342 II409 140 232 XNOR2_X1
X343 II2271 II2275 226 232 233 NOR4_X1
X344 155 231 233 234 OAI21_X1
X345 n1879gat n1834gat n1767gat 235 AND3_X1
X346 235 n1442gat INV_X1
X347 II646 224 226 II930 236 OAI22_X1
X348 II2271 II2275 237 NAND2_X1
X349 237 238 INV_X1
X350 II1011 225 237 239 NOR3_X1
X351 235 239 240 NOR2_X1
X352 II1236 222 224 II1178 241 OAI22_X1
X353 II1183 115 221 II1174 242 OAI22_X1
X354 241 242 243 OR2_X1
X355 II1411 113 226 II1416 244 OAI22_X1
X356 n1442gat 113 II925 II734 222 245 OAI221_X1
X357 II651 115 221 II642 246 OAI22_X1
X358 236 245 246 247 NOR3_X1
X359 II842 221 222 II1016 248 OAI22_X1
X360 II851 115 224 II846 249 OAI22_X1
X361 248 249 250 OR2_X1
X362 223 n1442gat II1007 251 AOI21_X1
X363 251 n1442gat n682gat 252 OAI21_X1
X364 n2084gat 105 253 AND2_X1
X365 252 253 226 156 113 254 OAI221_X1
X366 254 250 n1442gat 255 AOI21_X1
X367 225 235 II1476 256 AOI21_X1
X368 II1344 221 222 II1481 257 OAI22_X1
X369 II1353 115 224 II1348 258 OAI22_X1
X370 256 257 258 259 OR3_X1
X371 146 n1442gat 244 260 OAI21_X1
X372 146 243 259 238 261 AOI22_X1
X373 237 255 260 247 261 240 262 OAI222_X1
X374 n672gat n2591gat n3106gat 263 NOR3_X1
X375 n1858gat n1442gat 264 NAND2_X1
X376 97 n1442gat 265 NAND2_X1
X377 n1507gat 264 265 n1677gat 266 OAI22_X1
X378 263 266 n1392gat n1389gat 262 267 AOI221_X1
X379 n2579gat 234 267 n3144gat NAND3_X1
X380 n2613gat 234 267 n3143gat NAND3_X1
X381 97 n1685gat 268 NAND2_X1
X382 n1336gat 97 n1685gat 269 NAND3_X1
X383 97 155 n1442gat 270 OAI21_X1
X384 n1747gat 269 270 271 AOI21_X1
X385 27 n1518gat 272 NAND2_X1
X386 n1455gat 97 235 272 273 AOI211_X1
X387 n1806gat 27 97 268 n1393gat n1674gat 274 OAI33_X1
X388 271 273 274 n3141gat OR3_X1
X389 n3086gat n3093gat 275 NAND2_X1
X390 n3093gat 32 n3085gat n3086gat 276 OAI211_X1
X391 n3088gat 276 277 NOR2_X1
X392 277 188 81 278 AOI21_X1
X393 n3086gat n3095gat n3093gat n3085gat 279 AOI22_X1
X394 279 280 INV_X1
X395 n3088gat n3095gat n3093gat n3087gat 281 AOI22_X1
X396 275 30 11 282 OAI21_X1
X397 282 283 INV_X1
X398 279 281 282 284 NAND3_X1
X399 279 281 282 285 OR3_X1
X400 280 281 282 286 NAND3_X1
X401 281 283 287 NOR2_X1
X402 279 287 288 NAND2_X1
X403 280 287 289 NAND2_X1
X404 n672gat 284 288 II925 290 OAI22_X1
X405 II1411 285 286 n365gat 289 II409 291 OAI222_X1
X406 290 291 292 NOR2_X1
X407 n3095gat 80 n3087gat n3086gat 293 OAI211_X1
X408 n3085gat n3087gat n3086gat 294 NAND3_X1
X409 n3088gat n3093gat 294 295 NAND3_X1
X410 293 295 276 296 OAI21_X1
X411 n625gat 285 286 n1225gat 288 II687 297 OAI222_X1
X412 296 297 298 NAND2_X1
X413 298 292 278 n3137gat OAI21_X1
X414 II1416 285 289 II414 299 OAI22_X1
X415 n560gat 286 288 II930 300 OAI22_X1
X416 299 300 301 NOR2_X1
X417 n621gat 285 286 n1281gat 288 II692 302 OAI222_X1
X418 296 302 303 NAND2_X1
X419 303 301 278 n3136gat OAI21_X1
X420 II2153 286 288 II1007 304 OAI22_X1
X421 II1472 285 289 II453 305 OAI22_X1
X422 304 305 306 NOR2_X1
X423 n499gat 285 286 II1899 288 II726 307 OAI222_X1
X424 296 307 308 NAND2_X1
X425 308 306 278 n3135gat OAI21_X1
X426 II1011 288 289 II456 309 OAI22_X1
X427 II1476 285 286 II2157 310 OAI22_X1
X428 309 310 311 NOR2_X1
X429 n490gat 285 286 II1903 288 II729 312 OAI222_X1
X430 296 312 313 NAND2_X1
X431 313 311 278 n3134gat OAI21_X1
X432 II2162 286 288 II1016 314 OAI22_X1
X433 II1481 285 289 II461 315 OAI22_X1
X434 314 315 316 NOR2_X1
X435 II1236 285 286 II1908 288 II734 317 OAI222_X1
X436 296 317 318 NAND2_X1
X437 318 316 278 n3133gat OAI21_X1
X438 II1344 285 286 II2040 319 OAI22_X1
X439 II842 288 289 II359 320 OAI22_X1
X440 319 320 321 NOR2_X1
X441 II1174 285 286 II1791 288 II642 322 OAI222_X1
X442 296 322 323 NAND2_X1
X443 323 321 278 n3132gat OAI21_X1
X444 II1348 285 286 II2044 324 OAI22_X1
X445 II846 288 289 II363 325 OAI22_X1
X446 324 325 326 NOR2_X1
X447 II1178 285 286 II1795 288 II646 327 OAI222_X1
X448 296 327 328 NAND2_X1
X449 328 326 278 n3131gat OAI21_X1
X450 II2049 286 288 II851 329 OAI22_X1
X451 II1353 285 289 II368 330 OAI22_X1
X452 329 330 331 NOR2_X1
X453 II1183 285 286 II1800 288 II651 332 OAI222_X1
X454 296 332 333 NAND2_X1
X455 333 331 278 n3130gat OAI21_X1
X456 280 281 283 334 NAND3_X1
X457 334 284 22 II406 289 335 OAI221_X1
X458 II1407 285 286 140 288 II921 336 OAI222_X1
X459 335 336 337 NOR2_X1
X460 II1209 285 286 132 288 II683 338 OAI222_X1
X461 296 338 339 NAND2_X1
X462 339 337 278 n3129gat OAI21_X1
X463 n2646gat 293 337 n3125gat OAI21_X1
X464 n2971gat 292 293 n3124gat OAI21_X1
X465 n3010gat 293 301 n3123gat OAI21_X1
X466 n504gat 293 306 n3122gat OAI21_X1
X467 n567gat 293 311 n3121gat OAI21_X1
X468 n55gat 293 316 n3120gat OAI21_X1
X469 n933gat 293 321 n3119gat OAI21_X1
X470 n43gat 293 326 n3118gat OAI21_X1
X471 n748gat 293 331 n3117gat OAI21_X1
X472 20 II3394 340 NOR2_X1
X473 n1281gat n2189gat II3394 n3114gat NAND3_X1
X474 n2134gat 175 341 XOR2_X1
X475 II1899 341 n3113gat NAND2_X1
X476 n2283gat II1908 n1918gat n3111gat NAND3_X1
X477 n2283gat n1918gat 342 NOR2_X1
X478 n2283gat n1989gat n1918gat 343 NOR3_X1
X479 16 342 344 XNOR2_X1
X480 II1791 344 n3110gat NAND2_X1
X481 18 343 345 AND2_X1
X482 16 n1988gat 346 NAND2_X1
X483 18 343 347 XNOR2_X1
X484 II1795 347 n3109gat NAND2_X1
X485 19 345 348 XNOR2_X1
X486 II1800 348 n3108gat NAND2_X1
X487 n3088gat 82 349 NOR2_X1
X488 76 77 83 350 NOR3_X1
X489 n1787gat 163 351 XOR2_X1
X490 350 349 99 352 AOI21_X1
X491 351 352 n3105gat NAND2_X1
X492 n1631gat 170 353 XOR2_X1
X493 353 219 77 29 217 n3104gat OAI221_X1
X494 n1821gat n1825gat n1816gat NAND2_X1
X495 II414 II409 106 n1625gat NOR3_X1
X496 II414 10 106 n1626gat NOR3_X1
X497 103 156 n1836gat NAND2_X1
X498 103 106 156 n1781gat NAND3_X1
X499 n2510gat n2588gat n2502gat 354 AND3_X1
X500 n2658gat n2506gat 354 n2661gat NAND3_X1
X501 n2661gat 355 INV_X1
X502 n2446gat II3954 n3147gat NAND2_X1
X503 78 98 187 82 n827gat OAI22_X1
X504 n3100gat n2309gat 355 356 AOI21_X1
X505 n1879gat n2021gat 357 NAND2_X1
X506 n2095gat n2037gat 358 NAND2_X1
X507 356 358 357 n2099gat n3034gat AOI211_X1
X508 n3034gat 359 INV_X1
X509 n2265gat 340 360 XNOR2_X1
X510 n3034gat 360 n3036gat NAND2_X1
X511 174 n3034gat 361 NAND2_X1
X512 361 n3040gat INV_X1
X513 2 n1633gat n1787gat 159 362 AOI22_X1
X514 n1974gat 362 363 XOR2_X1
X515 174 n3034gat 363 n3053gat NAND3_X1
X516 183 n3034gat 364 NAND2_X1
X517 364 n3047gat INV_X1
X518 n2283gat 17 346 365 AOI21_X1
X519 n2643gat 365 366 XNOR2_X1
X520 n3047gat 366 n3054gat NAND2_X1
X521 n1339gat 97 116 157 367 NOR4_X1
X522 n1392gat n1461gat 264 368 NOR3_X1
X523 367 368 369 NOR2_X1
X524 n1393gat n1524gat 268 370 NOR3_X1
X525 n1879gat n2021gat n3097gat 371 NAND3_X1
X526 n1774gat n3098gat n3106gat 372 NOR3_X1
X527 372 n1816gat n1828gat 373 OAI21_X1
X528 373 371 n1825gat 374 AOI21_X1
X529 4 n1587gat n1858gat 375 NOR3_X1
X530 n1461gat n1858gat 376 NAND2_X1
X531 4 97 155 n1393gat 377 OAI211_X1
X532 n1677gat 376 377 378 AOI21_X1
X533 370 374 375 378 379 NOR4_X1
X534 379 369 n1507gat n3140gat OAI21_X1
X535 40 102 n1620gat NOR2_X1
X536 n3099gat 28 n1827gat NOR2_X1
X537 II368 n1691gat n1606gat NOR2_X1
X538 14 n3147gat 380 NAND2_X1
X539 n2472gat 380 n1816gat n1828gat 381 OAI211_X1
X540 II368 n1691gat 381 n1610gat NOR3_X1
X541 165 169 382 AND2_X1
X542 n1989gat n1988gat 19 178 383 OR4_X1
X543 382 383 n1793gat NOR2_X1
X544 n1631gat n1785gat n1787gat 384 NAND3_X1
X545 18 n1658gat 385 NOR2_X1
X546 n2283gat n1989gat n1918gat 385 386 NAND4_X1
X547 167 384 386 n1516gat NOR3_X1
X548 n1884gat n1633gat 383 384 n1565gat NOR4_X1
X549 II414 10 106 381 n1696gat NOR4_X1
X550 II726 II729 n1989gat 387 NAND3_X1
X551 n2283gat II687 388 XOR2_X1
X552 II692 n1918gat 389 XOR2_X1
X553 5 II692 II729 390 AND3_X1
X554 6 390 391 NAND2_X1
X555 387 388 389 391 n1989gat 181 392 OAI33_X1
X556 n1989gat 18 6 II729 393 AOI211_X1
X557 177 390 393 394 AOI21_X1
X558 6 II729 342 395 NAND3_X1
X559 395 178 6 396 OAI21_X1
X560 5 7 II729 397 NAND3_X1
X561 n1658gat 346 397 398 NOR3_X1
X562 3 17 n1658gat 394 399 NOR4_X1
X563 399 398 396 385 392 400 AOI221_X1
X564 235 400 401 NOR2_X1
X565 235 382 400 402 NOR3_X1
X566 402 n2021gat n1879gat n2017gat AOI21_X1
X567 356 402 403 OR2_X1
X568 403 n1774gat 21 n1879gat n2021gat n2009gat AOI221_X1
X569 n1787gat 167 404 NOR2_X1
X570 n1631gat n1785gat n1858gat 404 n1636gat AND4_X1
X571 21 n2168gat 403 n2163gat NOR3_X1
X572 n2039gat n1774gat n1315gat n2015gat NOR3_X1
X573 344 364 n3048gat NOR2_X1
X574 II414 II409 106 381 n1613gat NOR4_X1
X575 n2557gat 108 405 OR2_X1
X576 145 226 405 n1391gat NOR3_X1
X577 164 402 n1927gat NOR2_X1
X578 2 n1785gat 160 n1712gat NOR3_X1
X579 2 n1785gat 160 383 n1567gat NOR4_X1
X580 169 401 179 177 n1564gat AOI211_X1
X581 n1989gat n1988gat 19 181 406 OR4_X1
X582 171 406 n1915gat NOR2_X1
X583 164 406 n1800gat NOR2_X1
X584 21 167 384 n1593gat NOR3_X1
X585 359 II3394 n2189gat n3031gat AOI21_X1
X586 341 359 n3035gat NOR2_X1
X587 353 361 n3037gat NOR2_X1
X588 351 361 n3041gat NOR2_X1
X589 220 361 n3042gat NOR2_X1
X590 361 n1633gat n1884gat n3044gat AOI21_X1
X591 364 n1918gat n2283gat n3049gat AOI21_X1
X592 348 364 n3050gat NOR2_X1
X593 347 364 n3051gat NOR2_X1
X594 n2123gat n2117gat 380 n3052gat AND3_X1
X595 n1774gat n2514gat n1771gat 407 AND3_X1
X596 n2168gat n2176gat n2033gat n2110gat 408 NAND4_X1
X597 358 408 407 II3318 n3146gat AOI211_X1
X598 n1518gat 407 n3145gat NOR2_X1
X599 2 n1633gat 384 n1632gat NOR3_X1
X600 107 114 405 n3138gat NOR3_X1
X601 n3106gat n1771gat n1774gat n3107gat AOI21_X1
X602 379 369 n1507gat n3139gat OAI21_X1
X603 CK n672gat n2897gat dff
X604 CK II729 n3069gat dff
X605 CK II368 n3065gat dff
X606 CK n2551gat n3053gat dff
X607 CK n2506gat n2613gat dff
X608 CK n1834gat n1625gat dff
X609 CK n1767gat n1626gat dff
X610 CK n2084gat n1442gat dff
X611 CK n1787gat n2482gat dff
X612 CK n1785gat n2557gat dff
X613 CK n1633gat n2487gat dff
X614 CK n1884gat n2532gat dff
X615 CK n1631gat n2486gat dff
X616 CK II359 n3067gat dff
X617 CK n1989gat n2353gat dff
X618 CK n1918gat n2284gat dff
X619 CK n2283gat n2443gat dff
X620 CK n1658gat n2205gat dff
X621 CK n1988gat n2201gat dff
X622 CK n1389gat n1793gat dff
X623 CK n2021gat n1781gat dff
X624 CK n1393gat n1516gat dff
X625 CK n1495gat n1392gat dff
X626 CK n2090gat n1685gat dff
X627 CK II363 n3066gat dff
X628 CK n1332gat n1565gat dff
X629 CK n1739gat n1330gat dff
X630 CK n2178gat n1945gat dff
X631 CK n2189gat n2268gat dff
X632 CK n2134gat n2337gat dff
X633 CK II3394 n2388gat dff
X634 CK n2181gat n1836gat dff
X635 CK n1433gat n2983gat dff
X636 CK n1315gat n1431gat dff
X637 CK n1363gat n1314gat dff
X638 CK II406 n3073gat dff
X639 CK n1311gat n1361gat dff
X640 CK n1774gat n1696gat dff
X641 CK II3318 n2009gat dff
X642 CK n2591gat n1773gat dff
X643 CK n1507gat n1636gat dff
X644 CK n1677gat n1712gat dff
X645 CK n2309gat Vdd dff
X646 CK II3954 n2307gat dff
X647 CK n2446gat n2661gat dff
X648 CK n2095gat n827gat dff
X649 CK II461 n3068gat dff
X650 CK n2176gat n2093gat dff
X651 CK n2168gat n2174gat dff
X652 CK n1691gat n2163gat dff
X653 CK n2039gat n1518gat dff
X654 CK n2044gat n2015gat dff
X655 CK n2037gat n2042gat dff
X656 CK n2025gat n2017gat dff
X657 CK n2099gat n2023gat dff
X658 CK n2265gat n2493gat dff
X659 CK n2033gat n2035gat dff
X660 CK n2522gat n43gat dff
X661 CK n2110gat n2031gat dff
X662 CK n2124gat n2108gat dff
X663 CK n2121gat n2123gat dff
X664 CK n2117gat n2119gat dff
X665 CK n1974gat n2553gat dff
X666 CK n2643gat n2574gat dff
X667 CK n155gat n503gat dff
X668 CK n151gat n705gat dff
X669 CK n330gat n596gat dff
X670 CK n387gat n595gat dff
X671 CK n2472gat n1620gat dff
X672 CK n462gat n594gat dff
X673 CK n326gat n682gat dff
X674 CK n383gat n695gat dff
X675 CK n255gat n718gat dff
X676 CK n469gat n736gat dff
X677 CK n147gat n719gat dff
X678 CK n2458gat n2590gat dff
X679 CK n2514gat n2456gat dff
X680 CK n1771gat n1613gat dff
X681 CK n1336gat n1391gat dff
X682 CK n2319gat n2470gat dff
X683 CK n1747gat n1927gat dff
X684 CK n1674gat n1713gat dff
X685 CK n1806gat n1717gat dff
X686 CK n1339gat n1567gat dff
X687 CK n1455gat n1564gat dff
X688 CK n1524gat n1632gat dff
X689 CK n1461gat n1915gat dff
X690 CK n1595gat n1800gat dff
X691 CK n1587gat n1593gat dff
X692 CK n1821gat n1827gat dff
X693 CK n1825gat n1827gat dff
X694 CK II726 n3070gat dff
X695 CK n2029gat n1816gat dff
X696 CK n1828gat n2027gat dff
X697 CK II651 n3065gat dff
X698 CK II642 n3067gat dff
X699 CK II646 n3066gat dff
X700 CK II683 n3073gat dff
X701 CK II734 n3068gat dff
X702 CK n2476gat n55gat dff
X703 CK II851 n2914gat dff
X704 CK II842 n2928gat dff
X705 CK II687 n3072gat dff
X706 CK II846 n2927gat dff
X707 CK II930 n2896gat dff
X708 CK II921 n2922gat dff
X709 CK II925 n2897gat dff
X710 CK II1016 n2894gat dff
X711 CK II1007 n2921gat dff
X712 CK II1011 n2895gat dff
X713 CK n2468gat n933gat dff
X714 CK n499gat n3070gat dff
X715 CK n490gat n3069gat dff
X716 CK II692 n3071gat dff
X717 CK n621gat n3071gat dff
X718 CK n625gat n3072gat dff
X719 CK II1183 n3064gat dff
X720 CK II1174 n3055gat dff
X721 CK II1178 n3063gat dff
X722 CK II1209 n3062gat dff
X723 CK II1236 n3056gat dff
X724 CK n2526gat n504gat dff
X725 CK II1353 n2913gat dff
X726 CK II1344 n2920gat dff
X727 CK II456 n3069gat dff
X728 CK II1348 n2905gat dff
X729 CK II1416 n3057gat dff
X730 CK II1407 n3059gat dff
X731 CK II1411 n3058gat dff
X732 CK II1481 n2898gat dff
X733 CK II1472 n3060gat dff
X734 CK II1476 n3061gat dff
X735 CK n2464gat n567gat dff
X736 CK II2268 n3048gat dff
X737 CK II2242 n3049gat dff
X738 CK II453 n3070gat dff
X739 CK II2271 n3051gat dff
X740 CK II2238 n3047gat dff
X741 CK II2275 n3050gat dff
X742 CK n2536gat n3040gat dff
X743 CK II2389 n3044gat dff
X744 CK II2394 n3042gat dff
X745 CK n2550gat n3037gat dff
X746 CK n2429gat n3041gat dff
X747 CK n2101gat n1606gat dff
X748 CK n1879gat n3052gat dff
X749 CK II409 n3072gat dff
X750 CK n1762gat n1610gat dff
X751 CK n2154gat n1858gat dff
X752 CK II1800 n2918gat dff
X753 CK II1791 n2952gat dff
X754 CK II1795 n2919gat dff
X755 CK n1281gat n2910gat dff
X756 CK n1225gat n2907gat dff
X757 CK II1908 n2911gat dff
X758 CK II1899 n2912gat dff
X759 CK II1903 n2909gat dff
X760 CK II414 n3071gat dff
X761 CK n1196gat n2908gat dff
X762 CK II1961 n2971gat dff
X763 CK n666gat n2904gat dff
X764 CK II2049 n2891gat dff
X765 CK II2040 n2903gat dff
X766 CK II2044 n2915gat dff
X767 CK n560gat n2901gat dff
X768 CK n365gat n2890gat dff
X769 CK II2162 n2888gat dff
X770 CK II2153 n2887gat dff
X771 CK n2510gat n748gat dff
X772 CK II2157 n2886gat dff
X773 CK n2599gat n3010gat dff
X774 CK n2588gat n3016gat dff
X775 CK n2576gat n3054gat dff
X776 CK n2658gat n2579gat dff
X777 CK n2494gat n3036gat dff
X778 CK n2389gat n3034gat dff
X779 CK n2269gat n3031gat dff
X780 CK n2338gat n3035gat dff
X781 CK n2502gat n2646gat dff
V0 n2039gat n2040gat DC 0
V1 n2268gat n2046gat DC 0
V2 Vss n2048gat DC 0
V3 n1884gat n1899gat DC 0
V4 n3035gat n2057gat DC 0
V5 n1884gat n1898gat DC 0
V6 n1785gat n2060gat DC 0
V7 n1785gat n2061gat DC 0
V8 n2090gat n2091gat DC 0
V9 n2101gat n2102gat DC 0
V10 n2124gat n2125gat DC 0
V11 n2388gat n2127gat DC 0
V12 n2134gat n2135gat DC 0
V13 n1633gat n2138gat DC 0
V14 n1633gat n2139gat DC 0
V15 n1787gat n2142gat DC 0
V16 n1787gat n2143gat DC 0
V17 n3047gat n2147gat DC 0
V18 n1785gat n1891gat DC 0
V19 Vdd n1890gat DC 0
V20 n2154gat n2155gat DC 0
V21 n2168gat n2169gat DC 0
V22 n2178gat n2179gat DC 0
V23 n2181gat n2182gat DC 0
V24 Vss n2184gat DC 0
V25 n2189gat n2190gat DC 0
V26 n3034gat n2192gat DC 0
V27 n1884gat n1886gat DC 0
V28 n3031gat n2194gat DC 0
V29 n3040gat n2195gat DC 0